sad/pglib_opf_case2383wp_mp__sad.m
%%%%%%%%%%%%%%%%%%%%%%%%%%%%%%%%%%%%%%%%%%%%%%%%%%%%%%%%%%%%%%%%%%%%%%%%%%%
%%%%                                                                  %%%%%
%%%%    IEEE PES Power Grid Library - Optimal Power Flow - v17.07     %%%%%
%%%%          (https://github.com/power-grid-lib/pglib-opf)           %%%%%
%%%%             Benchmark Group - Small Angle Difference             %%%%%
%%%%                         27 - June - 2017                         %%%%%
%%%%                                                                  %%%%%
%%%%%%%%%%%%%%%%%%%%%%%%%%%%%%%%%%%%%%%%%%%%%%%%%%%%%%%%%%%%%%%%%%%%%%%%%%%
function mpc = pglib_opf_case2383wp_mp__sad
mpc.version = '2';
mpc.baseMVA = 100.0;

%% area data
%	area	refbus
mpc.areas = [
	1	 18;
];

%% bus data
%	bus_i	type	Pd	Qd	Gs	Bs	area	Vm	Va	baseKV	zone	Vmax	Vmin
mpc.bus = [
	1	 1	 0.0	 0.0	 0.0	 0.0	 1	    1.09168	    1.67521	 220.0	 1	    1.11000	    0.95000;
	2	 1	 0.0	 0.0	 0.0	 0.0	 1	    1.08028	    2.26833	 220.0	 1	    1.11000	    0.95000;
	3	 1	 0.0	 0.0	 0.0	 0.0	 1	    1.05587	  -15.68793	 220.0	 1	    1.11000	    0.95000;
	4	 1	 0.0	 0.0	 0.0	 0.0	 1	    1.07400	   -3.20022	 220.0	 1	    1.11000	    0.95000;
	5	 1	 0.0	 0.0	 0.0	 0.0	 1	    1.06895	  -10.19209	 220.0	 1	    1.11000	    0.95000;
	6	 1	 0.0	 0.0	 0.0	 0.0	 1	    1.03374	   -5.55917	 400.0	 1	    1.05000	    0.95000;
	7	 1	 0.0	 0.0	 0.0	 0.0	 1	    1.06329	  -11.60410	 220.0	 1	    1.11000	    0.95000;
	8	 1	 0.0	 0.0	 0.0	 0.0	 1	    1.03933	   -4.20284	 400.0	 1	    1.05000	    0.95000;
	9	 1	 0.0	 0.0	 0.0	 0.0	 1	    1.04261	   -8.23052	 400.0	 1	    1.05000	    0.95000;
	10	 2	 12.23	 9.0	 0.0	 0.0	 1	    1.08267	  -10.06066	 220.0	 1	    1.11000	    0.95000;
	11	 1	 0.0	 0.0	 0.0	 0.0	 1	    1.07940	   -2.13401	 220.0	 1	    1.11000	    0.95000;
	12	 1	 0.0	 0.0	 0.0	 0.0	 1	    1.06749	  -12.91567	 220.0	 1	    1.11000	    0.95000;
	13	 1	 0.0	 0.0	 0.0	 0.0	 1	    1.06874	  -11.40292	 220.0	 1	    1.11000	    0.95000;
	14	 1	 0.0	 0.0	 0.0	 0.0	 1	    1.06617	   -0.80905	 220.0	 1	    1.11000	    0.95000;
	15	 1	 0.0	 0.0	 0.0	 0.0	 1	    1.02290	   -8.16031	 400.0	 1	    1.05000	    0.95000;
	16	 2	 54.88	 100.0	 0.0	 0.0	 1	    1.09433	    2.14438	 220.0	 1	    1.11000	    0.95000;
	17	 2	 77.0	 150.0	 0.0	 0.0	 1	    1.08554	    3.04657	 220.0	 1	    1.11000	    0.95000;
	18	 3	 153.0	 350.0	 0.0	 0.0	 1	    1.03155	    0.00000	 400.0	 1	    1.05000	    0.95000;
	19	 1	 0.0	 0.0	 0.0	 0.0	 1	    1.06717	  -12.34102	 220.0	 1	    1.11000	    0.95000;
	20	 1	 0.0	 0.0	 0.0	 0.0	 1	    1.03522	   -0.19531	 400.0	 1	    1.05000	    0.95000;
	21	 1	 0.0	 0.0	 0.0	 0.0	 1	    1.06279	  -12.04162	 220.0	 1	    1.11000	    0.95000;
	22	 1	 0.0	 0.0	 0.0	 0.0	 1	    1.08374	   -5.48793	 220.0	 1	    1.11000	    0.95000;
	23	 1	 0.0	 0.0	 0.0	 0.0	 1	    1.07376	   -5.03108	 220.0	 2	    1.11000	    0.95000;
	24	 1	 0.0	 0.0	 0.0	 0.0	 1	    1.05917	   -0.75630	 220.0	 2	    1.11000	    0.95000;
	25	 1	 0.0	 0.0	 0.0	 0.0	 1	    1.06357	    1.14567	 220.0	 2	    1.11000	    0.95000;
	26	 1	 0.0	 0.0	 0.0	 0.0	 1	    1.06252	   -7.86450	 220.0	 2	    1.11000	    0.95000;
	27	 1	 0.0	 0.0	 0.0	 0.0	 1	    1.06617	   -1.70595	 220.0	 2	    1.11000	    0.95000;
	28	 1	 0.0	 0.0	 0.0	 0.0	 1	    1.06613	   -1.70069	 220.0	 2	    1.11000	    0.95000;
	29	 2	 25.98	 60.0	 0.0	 0.0	 1	    1.10998	   -3.20022	 220.0	 2	    1.11000	    0.95000;
	30	 2	 25.98	 60.0	 0.0	 0.0	 1	    1.11000	   -3.19285	 220.0	 2	    1.11000	    0.95000;
	31	 2	 20.98	 50.0	 0.0	 0.0	 1	    1.03268	   -0.85068	 400.0	 2	    1.05000	    0.95000;
	32	 1	 0.0	 0.0	 0.0	 0.0	 1	    1.03270	   -0.87705	 400.0	 2	    1.05000	    0.95000;
	33	 1	 0.0	 0.0	 0.0	 0.0	 1	    1.06104	   -2.39734	 220.0	 2	    1.11000	    0.95000;
	34	 1	 0.0	 0.0	 0.0	 0.0	 1	    1.04375	   -1.32805	 400.0	 2	    1.05000	    0.95000;
	35	 1	 0.0	 0.0	 0.0	 0.0	 1	    1.04377	   -1.33496	 400.0	 2	    1.05000	    0.95000;
	36	 1	 0.0	 0.0	 0.0	 0.0	 1	    1.01602	   -3.73364	 400.0	 2	    1.05000	    0.95000;
	37	 1	 0.0	 0.0	 0.0	 0.0	 1	    1.07246	   -5.86890	 220.0	 2	    1.11000	    0.95000;
	38	 1	 0.0	 0.0	 0.0	 0.0	 1	    1.07246	   -5.86803	 220.0	 2	    1.11000	    0.95000;
	39	 1	 0.0	 0.0	 0.0	 0.0	 1	    1.02199	    0.24893	 400.0	 2	    1.05000	    0.95000;
	40	 1	 0.0	 0.0	 0.0	 0.0	 1	    1.02194	    0.25825	 400.0	 2	    1.05000	    0.95000;
	41	 2	 11.99	 30.0	 0.0	 0.0	 1	    1.06644	    3.40468	 220.0	 2	    1.11000	    0.95000;
	42	 2	 11.99	 30.0	 0.0	 0.0	 1	    1.06643	    3.40602	 220.0	 2	    1.11000	    0.95000;
	43	 2	 23.98	 60.0	 0.0	 0.0	 1	    1.02531	    2.46678	 400.0	 2	    1.05000	    0.95000;
	44	 2	 23.98	 60.0	 0.0	 0.0	 1	    1.02535	    2.45137	 400.0	 2	    1.05000	    0.95000;
	45	 2	 159.84	 75.0	 0.0	 0.0	 1	    1.09174	   -4.45056	 220.0	 2	    1.11000	    0.95000;
	46	 1	 0.0	 0.0	 0.0	 0.0	 1	    1.09175	   -4.44860	 220.0	 2	    1.11000	    0.95000;
	47	 1	 0.0	 0.0	 0.0	 0.0	 1	    1.06086	   -1.72902	 220.0	 2	    1.11000	    0.95000;
	48	 1	 0.0	 0.0	 0.0	 0.0	 1	    1.08839	   -4.24441	 220.0	 2	    1.11000	    0.95000;
	49	 1	 0.0	 0.0	 0.0	 0.0	 1	    1.08841	   -4.24632	 220.0	 2	    1.11000	    0.95000;
	50	 1	 0.0	 0.0	 0.0	 0.0	 1	    1.03061	    0.30670	 400.0	 2	    1.05000	    0.95000;
	51	 1	 0.0	 0.0	 0.0	 0.0	 1	    1.03070	    0.29139	 400.0	 2	    1.05000	    0.95000;
	52	 1	 0.0	 0.0	 0.0	 0.0	 1	    1.06383	   -1.46506	 220.0	 2	    1.11000	    0.95000;
	53	 1	 0.0	 0.0	 0.0	 0.0	 1	    1.06519	   -1.32458	 220.0	 2	    1.11000	    0.95000;
	54	 1	 0.0	 0.0	 0.0	 0.0	 1	    1.06365	    1.21346	 220.0	 2	    1.11000	    0.95000;
	55	 1	 0.0	 0.0	 0.0	 0.0	 1	    1.07637	   -4.89281	 220.0	 2	    1.11000	    0.95000;
	56	 1	 0.0	 0.0	 0.0	 0.0	 1	    1.06802	   -0.07148	 220.0	 3	    1.11000	    0.95000;
	57	 1	 22.98	 10.96	 0.0	 0.0	 1	    1.07607	    2.20856	 220.0	 3	    1.11000	    0.95000;
	58	 1	 21.98	 5.79	 0.0	 0.0	 1	    1.07631	    2.21123	 220.0	 3	    1.11000	    0.95000;
	59	 1	 0.0	 0.0	 0.0	 0.0	 1	    1.08522	    6.92210	 220.0	 3	    1.11000	    0.95000;
	60	 1	 0.0	 0.0	 0.0	 0.0	 1	    1.07958	    2.15425	 220.0	 3	    1.11000	    0.95000;
	61	 1	 0.0	 0.0	 0.0	 0.0	 1	    1.09730	    8.41908	 220.0	 3	    1.11000	    0.95000;
	62	 1	 0.0	 0.0	 0.0	 0.0	 1	    1.09729	    8.42069	 220.0	 3	    1.11000	    0.95000;
	63	 2	 37.37	 52.69	 0.0	 0.0	 1	    1.08732	    7.35966	 220.0	 3	    1.11000	    0.95000;
	64	 2	 35.37	 55.32	 0.0	 0.0	 1	    1.08588	    7.19511	 220.0	 3	    1.11000	    0.95000;
	65	 1	 13.39	 2.02	 0.0	 0.0	 1	    1.08018	    5.19544	 220.0	 3	    1.11000	    0.95000;
	66	 1	 0.0	 0.0	 0.0	 0.0	 1	    1.10021	    0.45018	 220.0	 3	    1.11000	    0.95000;
	67	 2	 60.4	 92.1	 0.0	 0.0	 1	    1.05000	    1.84737	 400.0	 3	    1.05000	    0.95000;
	68	 1	 0.0	 0.0	 0.0	 0.0	 1	    1.09336	    1.10498	 220.0	 3	    1.11000	    0.95000;
	69	 1	 0.0	 0.0	 0.0	 0.0	 1	    1.08319	    5.07927	 220.0	 3	    1.11000	    0.95000;
	70	 1	 0.0	 0.0	 0.0	 0.0	 1	    1.07120	    0.76524	 220.0	 3	    1.11000	    0.95000;
	71	 1	 0.0	 0.0	 0.0	 0.0	 1	    1.07260	    4.03357	 220.0	 3	    1.11000	    0.95000;
	72	 1	 0.0	 0.0	 0.0	 0.0	 1	    1.07260	    4.03357	 220.0	 3	    1.11000	    0.95000;
	73	 1	 0.0	 0.0	 0.0	 0.0	 1	    1.07462	    1.39034	 220.0	 3	    1.11000	    0.95000;
	74	 1	 0.0	 0.0	 0.0	 0.0	 1	    1.07285	    0.59550	 220.0	 3	    1.11000	    0.95000;
	75	 1	 0.0	 0.0	 0.0	 0.0	 1	    1.02086	   -0.40515	 400.0	 3	    1.05000	    0.95000;
	76	 1	 0.0	 0.0	 0.0	 0.0	 1	    1.02080	   -0.40747	 400.0	 3	    1.05000	    0.95000;
	77	 1	 0.0	 0.0	 0.0	 0.0	 1	    1.07255	    3.38000	 220.0	 3	    1.11000	    0.95000;
	78	 1	 0.0	 0.0	 0.0	 0.0	 1	    1.07622	    1.60673	 220.0	 3	    1.11000	    0.95000;
	79	 1	 0.0	 0.0	 0.0	 0.0	 1	    1.07822	    5.06615	 220.0	 3	    1.11000	    0.95000;
	80	 1	 0.0	 0.0	 0.0	 0.0	 1	    1.07672	    2.26292	 220.0	 3	    1.11000	    0.95000;
	81	 1	 0.0	 0.0	 0.0	 0.0	 1	    1.07673	    2.26060	 220.0	 3	    1.11000	    0.95000;
	82	 1	 0.0	 0.0	 0.0	 0.0	 1	    1.09075	    7.32331	 220.0	 3	    1.11000	    0.95000;
	83	 2	 15.99	 22.97	 0.0	 0.0	 1	    1.08393	    5.01162	 220.0	 3	    1.11000	    0.95000;
	84	 2	 15.79	 22.27	 0.0	 0.0	 1	    1.08404	    5.01033	 220.0	 3	    1.11000	    0.95000;
	85	 2	 9.99	 17.01	 0.0	 0.0	 1	    1.07640	    3.37599	 220.0	 3	    1.11000	    0.95000;
	86	 2	 9.99	 16.66	 0.0	 0.0	 1	    1.07632	    3.37728	 220.0	 3	    1.11000	    0.95000;
	87	 1	 11.09	 16.22	 0.0	 0.0	 1	    1.07176	    3.00329	 220.0	 3	    1.11000	    0.95000;
	88	 1	 0.0	 0.0	 0.0	 0.0	 1	    1.07177	    3.00652	 220.0	 3	    1.11000	    0.95000;
	89	 1	 0.0	 0.0	 0.0	 0.0	 1	    1.08204	    5.84368	 220.0	 3	    1.11000	    0.95000;
	90	 1	 0.0	 0.0	 0.0	 0.0	 1	    1.07855	    4.16611	 220.0	 3	    1.11000	    0.95000;
	91	 1	 0.0	 0.0	 0.0	 0.0	 1	    1.08048	    5.65252	 220.0	 3	    1.11000	    0.95000;
	92	 1	 0.0	 0.0	 0.0	 0.0	 1	    0.99680	   -1.05091	 400.0	 3	    1.05000	    0.95000;
	93	 2	 9.99	 16.39	 0.0	 0.0	 1	    1.08175	    6.35601	 220.0	 3	    1.11000	    0.95000;
	94	 1	 0.0	 0.0	 0.0	 0.0	 1	    1.08177	    6.35352	 220.0	 3	    1.11000	    0.95000;
	95	 2	 6.89	 8.15	 0.0	 0.0	 1	    1.09060	    6.71764	 220.0	 3	    1.11000	    0.95000;
	96	 1	 0.0	 0.0	 0.0	 0.0	 1	    1.09061	    6.71476	 220.0	 3	    1.11000	    0.95000;
	97	 2	 8.69	 5.26	 0.0	 0.0	 1	    1.08029	    1.98306	 220.0	 3	    1.11000	    0.95000;
	98	 1	 0.0	 0.0	 0.0	 0.0	 1	    1.02068	    0.71623	 400.0	 3	    1.05000	    0.95000;
	99	 1	 0.0	 0.0	 0.0	 0.0	 1	    1.02075	    0.72172	 400.0	 3	    1.05000	    0.95000;
	100	 1	 0.0	 0.0	 0.0	 0.0	 1	    1.01581	   -0.46171	 400.0	 3	    1.05000	    0.95000;
	101	 1	 0.0	 0.0	 0.0	 0.0	 1	    1.01594	   -0.45803	 400.0	 3	    1.05000	    0.95000;
	102	 1	 0.0	 0.0	 0.0	 0.0	 1	    1.08479	    5.99470	 220.0	 3	    1.11000	    0.95000;
	103	 2	 18.09	 23.76	 0.0	 0.0	 1	    1.07773	    3.88148	 220.0	 3	    1.11000	    0.95000;
	104	 2	 33.68	 46.11	 0.0	 0.0	 1	    1.07791	    3.88922	 220.0	 3	    1.11000	    0.95000;
	105	 2	 33.78	 62.95	 0.0	 0.0	 1	    0.97847	   -0.85156	 400.0	 3	    1.05000	    0.95000;
	106	 1	 0.0	 0.0	 0.0	 0.0	 1	    0.97862	   -0.85587	 400.0	 3	    1.05000	    0.95000;
	107	 1	 0.0	 0.0	 0.0	 0.0	 1	    1.06973	    0.49859	 220.0	 3	    1.11000	    0.95000;
	108	 1	 0.0	 0.0	 0.0	 0.0	 1	    1.07159	    0.71400	 220.0	 3	    1.11000	    0.95000;
	109	 2	 1.0	 22.36	 0.0	 0.0	 1	    1.10072	    9.14002	 220.0	 3	    1.11000	    0.95000;
	110	 2	 1.0	 22.18	 0.0	 0.0	 1	    1.10071	    9.14170	 220.0	 3	    1.11000	    0.95000;
	111	 2	 26.49	 18.0	 0.0	 0.0	 1	    1.11000	   -5.97501	 220.0	 4	    1.11000	    0.95000;
	112	 1	 0.0	 0.0	 0.0	 0.0	 1	    1.10990	   -5.97414	 220.0	 4	    1.11000	    0.95000;
	113	 1	 0.0	 0.0	 0.0	 0.0	 1	    1.05989	   -8.24657	 220.0	 4	    1.11000	    0.95000;
	114	 1	 0.0	 0.0	 0.0	 0.0	 1	    1.07262	   -6.55734	 220.0	 4	    1.11000	    0.95000;
	115	 1	 0.0	 0.0	 0.0	 0.0	 1	    0.98538	   -5.79829	 400.0	 4	    1.05000	    0.95000;
	116	 1	 0.0	 0.0	 0.0	 0.0	 1	    0.98542	   -5.79705	 400.0	 4	    1.05000	    0.95000;
	117	 1	 0.0	 0.0	 0.0	 0.0	 1	    1.07929	  -12.33997	 220.0	 4	    1.11000	    0.95000;
	118	 1	 0.0	 0.0	 0.0	 0.0	 1	    1.06333	   -6.26659	 220.0	 4	    1.11000	    0.95000;
	119	 1	 0.0	 0.0	 0.0	 0.0	 1	    1.06333	   -6.26659	 220.0	 4	    1.11000	    0.95000;
	120	 1	 0.0	 0.0	 0.0	 0.0	 1	    1.04587	   -9.77588	 220.0	 4	    1.11000	    0.95000;
	121	 1	 0.0	 0.0	 0.0	 0.0	 1	    1.06486	  -10.12147	 220.0	 4	    1.11000	    0.95000;
	122	 1	 0.0	 0.0	 0.0	 0.0	 1	    1.06486	  -10.12147	 220.0	 4	    1.11000	    0.95000;
	123	 2	 5.5	 7.0	 0.0	 0.0	 1	    1.10994	   -6.84545	 220.0	 4	    1.11000	    0.95000;
	124	 2	 8.79	 17.0	 0.0	 0.0	 1	    1.11000	   -6.84426	 220.0	 4	    1.11000	    0.95000;
	125	 2	 35.7	 18.3	 0.0	 0.0	 1	    1.10158	   -2.71346	 220.0	 4	    1.11000	    0.95000;
	126	 1	 25.28	 15.9	 0.0	 0.0	 1	    1.10145	   -2.72406	 220.0	 4	    1.11000	    0.95000;
	127	 2	 25.71	 15.3	 0.0	 0.0	 1	    1.03368	   -2.64037	 400.0	 4	    1.05000	    0.95000;
	128	 1	 0.0	 0.0	 0.0	 0.0	 1	    1.03361	   -2.65773	 400.0	 4	    1.05000	    0.95000;
	129	 1	 0.0	 0.0	 0.0	 0.0	 1	    1.04694	  -13.28931	 220.0	 4	    1.11000	    0.95000;
	130	 1	 0.0	 0.0	 0.0	 0.0	 1	    1.03349	  -11.05331	 220.0	 4	    1.11000	    0.95000;
	131	 2	 68.67	 70.0	 0.0	 0.0	 1	    1.09737	   -2.62751	 220.0	 4	    1.11000	    0.95000;
	132	 2	 33.0	 45.0	 0.0	 0.0	 1	    1.09754	   -2.64943	 220.0	 4	    1.11000	    0.95000;
	133	 1	 0.0	 0.0	 0.0	 0.0	 1	    0.98537	   -3.63571	 400.0	 4	    1.05000	    0.95000;
	134	 1	 0.0	 0.0	 0.0	 0.0	 1	    0.98535	   -3.63184	 400.0	 4	    1.05000	    0.95000;
	135	 1	 0.0	 0.0	 0.0	 0.0	 1	    1.06353	   -6.35305	 220.0	 4	    1.11000	    0.95000;
	136	 1	 0.0	 0.0	 0.0	 0.0	 1	    1.06353	   -6.35305	 220.0	 4	    1.11000	    0.95000;
	137	 1	 0.0	 0.0	 0.0	 0.0	 1	    1.00620	   -4.34405	 400.0	 4	    1.05000	    0.95000;
	138	 1	 0.0	 0.0	 0.0	 0.0	 1	    1.00620	   -4.34405	 400.0	 4	    1.05000	    0.95000;
	139	 2	 33.2	 22.6	 0.0	 0.0	 1	    1.11000	   -6.86102	 220.0	 4	    1.11000	    0.95000;
	140	 2	 29.23	 19.6	 0.0	 0.0	 1	    1.11000	   -6.87076	 220.0	 4	    1.11000	    0.95000;
	141	 1	 0.0	 0.0	 0.0	 0.0	 1	    1.05095	  -16.65243	 220.0	 4	    1.11000	    0.95000;
	142	 1	 0.0	 0.0	 0.0	 0.0	 1	    1.06037	   -6.50585	 220.0	 4	    1.11000	    0.95000;
	143	 1	 0.0	 0.0	 0.0	 0.0	 1	    1.07581	  -12.75138	 220.0	 4	    1.11000	    0.95000;
	144	 1	 0.0	 0.0	 0.0	 0.0	 1	    1.07574	  -12.75420	 220.0	 4	    1.11000	    0.95000;
	145	 1	 0.0	 0.0	 0.0	 0.0	 1	    0.97457	  -10.36060	 400.0	 4	    1.05000	    0.95000;
	146	 1	 0.0	 0.0	 0.0	 0.0	 1	    0.97457	  -10.36060	 400.0	 4	    1.05000	    0.95000;
	147	 1	 0.0	 0.0	 0.0	 0.0	 1	    1.04353	  -10.60659	 220.0	 4	    1.11000	    0.95000;
	148	 1	 0.0	 0.0	 0.0	 0.0	 1	    1.04357	  -10.60285	 220.0	 4	    1.11000	    0.95000;
	149	 1	 0.0	 0.0	 0.0	 0.0	 1	    1.07171	  -13.45396	 220.0	 4	    1.11000	    0.95000;
	150	 1	 0.0	 0.0	 0.0	 0.0	 1	    1.06302	   -7.83509	 220.0	 4	    1.11000	    0.95000;
	151	 1	 0.0	 0.0	 0.0	 0.0	 1	    1.06303	   -7.84018	 220.0	 4	    1.11000	    0.95000;
	152	 1	 0.0	 0.0	 0.0	 0.0	 1	    1.06348	   -6.76525	 220.0	 4	    1.11000	    0.95000;
	153	 1	 0.0	 0.0	 0.0	 0.0	 1	    1.06348	   -6.76525	 220.0	 4	    1.11000	    0.95000;
	154	 1	 0.0	 0.0	 0.0	 0.0	 1	    1.02809	  -11.96442	 220.0	 4	    1.11000	    0.95000;
	155	 1	 0.0	 0.0	 0.0	 0.0	 1	    1.06041	  -13.98295	 220.0	 5	    1.11000	    0.95000;
	156	 1	 0.0	 0.0	 0.0	 0.0	 1	    1.11000	  -11.45113	 220.0	 5	    1.11000	    0.95000;
	157	 1	 0.0	 0.0	 0.0	 0.0	 1	    1.02391	   -8.93380	 400.0	 5	    1.05000	    0.95000;
	158	 1	 0.0	 0.0	 0.0	 0.0	 1	    1.02391	   -8.94217	 400.0	 5	    1.05000	    0.95000;
	159	 1	 0.0	 0.0	 0.0	 0.0	 1	    1.02957	  -11.44352	 400.0	 5	    1.05000	    0.95000;
	160	 1	 0.0	 0.0	 0.0	 0.0	 1	    1.02960	  -11.44534	 400.0	 5	    1.05000	    0.95000;
	161	 1	 0.0	 0.0	 0.0	 0.0	 1	    1.05709	  -15.82513	 220.0	 5	    1.11000	    0.95000;
	162	 1	 0.0	 0.0	 0.0	 0.0	 1	    1.05710	  -15.82418	 220.0	 5	    1.11000	    0.95000;
	163	 1	 0.0	 0.0	 0.0	 0.0	 1	    1.09519	  -13.62391	 220.0	 5	    1.11000	    0.95000;
	164	 1	 0.0	 0.0	 0.0	 0.0	 1	    1.09517	  -13.62816	 220.0	 5	    1.11000	    0.95000;
	165	 1	 0.0	 0.0	 0.0	 0.0	 1	    1.00991	  -12.61969	 400.0	 5	    1.05000	    0.95000;
	166	 1	 0.0	 0.0	 0.0	 0.0	 1	    1.07250	  -13.20547	 220.0	 5	    1.11000	    0.95000;
	167	 1	 0.0	 0.0	 0.0	 0.0	 1	    1.07254	  -13.20295	 220.0	 5	    1.11000	    0.95000;
	168	 1	 0.0	 0.0	 0.0	 0.0	 1	    1.02958	  -13.55688	 400.0	 5	    1.05000	    0.95000;
	169	 1	 0.0	 0.0	 0.0	 0.0	 1	    1.02956	  -13.56534	 400.0	 5	    1.05000	    0.95000;
	170	 1	 0.0	 0.0	 0.0	 0.0	 1	    1.04899	  -15.90467	 220.0	 5	    1.11000	    0.95000;
	171	 1	 0.0	 0.0	 0.0	 0.0	 1	    1.04901	  -15.90249	 220.0	 5	    1.11000	    0.95000;
	172	 1	 0.0	 0.0	 0.0	 0.0	 1	    1.06728	  -15.05778	 220.0	 5	    1.11000	    0.95000;
	173	 1	 0.0	 0.0	 0.0	 0.0	 1	    1.06724	  -15.05778	 220.0	 5	    1.11000	    0.95000;
	174	 1	 0.0	 0.0	 0.0	 0.0	 1	    1.06173	  -13.60183	 220.0	 5	    1.11000	    0.95000;
	175	 1	 0.0	 0.0	 0.0	 0.0	 1	    1.06172	  -13.60763	 220.0	 5	    1.11000	    0.95000;
	176	 2	 0.0	 40.0	 0.0	 0.0	 1	    1.03113	   -9.09252	 400.0	 5	    1.05000	    0.95000;
	177	 2	 0.0	 40.0	 0.0	 0.0	 1	    1.03129	   -9.09666	 400.0	 5	    1.05000	    0.95000;
	178	 1	 0.0	 0.0	 0.0	 0.0	 1	    1.07926	  -14.25321	 220.0	 5	    1.11000	    0.95000;
	179	 1	 0.0	 0.0	 0.0	 0.0	 1	    1.07929	  -14.24910	 220.0	 5	    1.11000	    0.95000;
	180	 2	 339.85	 49.6	 0.0	 0.0	 2	    0.95107	   -3.80560	 400.0	 6	    1.05000	    0.95000;
	181	 2	 0.0	 0.0	 0.0	 0.0	 3	    1.11000	    1.96250	 220.0	 6	    1.11000	    0.95000;
	182	 2	 0.0	 0.0	 0.0	 0.0	 5	    0.98496	   -3.32227	 400.0	 6	    1.05000	    0.95000;
	183	 1	 150.0	 0.0	 0.0	 0.0	 3	    1.05000	   -2.26313	 400.0	 6	    1.05000	    0.95000;
	184	 2	 317.34	 50.3	 0.0	 0.0	 2	    1.07901	    1.14514	 220.0	 6	    1.11000	    0.95000;
	185	 2	 362.43	 36.7	 0.0	 0.0	 2	    0.95116	   -4.67627	 400.0	 6	    1.05000	    0.95000;
	186	 2	 33.33	 1.0	 0.0	 0.0	 5	    1.10127	   -2.84406	 220.0	 6	    1.11000	    0.95000;
	187	 1	 7.12	 1.5	 0.0	 0.0	 1	    1.06703	  -16.41481	 110.0	 1	    1.12000	    0.95000;
	188	 1	 7.63	 1.0	 0.0	 0.0	 1	    1.02436	  -21.76227	 110.0	 1	    1.12000	    0.95000;
	189	 1	 9.77	 8.7	 0.0	 0.0	 1	    0.99906	  -20.19279	 110.0	 1	    1.12000	    0.95000;
	190	 1	 6.12	 1.5	 0.0	 0.0	 1	    1.10234	   -2.04324	 110.0	 1	    1.12000	    0.95000;
	191	 1	 6.12	 1.6	 0.0	 0.0	 1	    1.08016	   -3.12477	 110.0	 1	    1.12000	    0.95000;
	192	 2	 30.56	 12.0	 0.0	 0.0	 1	    1.11945	  -12.75005	 110.0	 1	    1.12000	    0.95000;
	193	 1	 15.28	 3.0	 0.0	 0.0	 1	    1.11856	  -12.67184	 110.0	 1	    1.12000	    0.95000;
	194	 1	 0.0	 0.0	 0.0	 0.0	 1	    1.11769	  -12.89276	 110.0	 1	    1.12000	    0.95000;
	195	 1	 8.14	 2.0	 0.0	 0.0	 1	    1.08271	  -17.02091	 110.0	 1	    1.12000	    0.95000;
	196	 2	 6.92	 1.5	 0.0	 0.0	 1	    1.01510	  -18.91576	 110.0	 1	    1.12000	    0.95000;
	197	 1	 6.92	 1.5	 0.0	 0.0	 1	    1.06190	  -11.10777	 110.0	 1	    1.12000	    0.95000;
	198	 2	 12.32	 1.7	 0.0	 0.0	 1	    1.07663	  -17.03588	 110.0	 1	    1.12000	    0.95000;
	199	 1	 1.43	 0.5	 0.0	 0.0	 1	    1.10783	   -4.28437	 110.0	 1	    1.12000	    0.95000;
	200	 1	 1.08	 0.5	 0.0	 0.0	 1	    1.09909	  -16.47229	 110.0	 1	    1.12000	    0.95000;
...
];

%% generator data
%	bus	Pg	Qg	Qmax	Qmin	Vg	mBase	status	Pmax	Pmin	Pc1	Pc2	Qc1min	Qc1max	Qc2min	Qc2max	ramp_agc	ramp_10	ramp_30	ramp_q	apf
mpc.gen = [
	10	 400.0	 0.0	 120.0	 0.0	 1.08267	 168.0	 1	 400.0	 70.0	 0.0	 0.0	 0.0	 0.0	 0.0	 0.0	 0.0	 0.0	 0.0	 0.0	 0.0;
	16	 720.0	 164.776	 440.0	 -40.0	 1.09433	 823.0	 1	 720.0	 120.0	 0.0	 0.0	 0.0	 0.0	 0.0	 0.0	 0.0	 0.0	 0.0	 0.0	 0.0;
	17	 1064.363	 185.162	 660.0	 -60.0	 1.08554	 1234.0	 1	 1080.0	 120.0	 0.0	 0.0	 0.0	 0.0	 0.0	 0.0	 0.0	 0.0	 0.0	 0.0	 0.0;
	18	 486.536	 267.505	 1540.0	 -140.0	 1.03155	 2879.0	 1	 2520.0	 120.0	 0.0	 0.0	 0.0	 0.0	 0.0	 0.0	 0.0	 0.0	 0.0	 0.0	 0.0;
	29	 400.0	 240.0	 240.0	 0.0	 1.10998	 511.0	 1	 400.0	 70.0	 0.0	 0.0	 0.0	 0.0	 0.0	 0.0	 0.0	 0.0	 0.0	 0.0	 0.0;
	30	 312.047	 164.282	 240.0	 0.0	 1.11	 511.0	 1	 800.0	 70.0	 0.0	 0.0	 0.0	 0.0	 0.0	 0.0	 0.0	 0.0	 0.0	 0.0	 0.0;
	31	 1000.0	 0.0	 350.0	 0.0	 1.03268	 420.0	 1	 1000.0	 150.0	 0.0	 0.0	 0.0	 0.0	 0.0	 0.0	 0.0	 0.0	 0.0	 0.0	 0.0;
	41	 200.0	 0.0	 120.0	 0.0	 1.06644	 241.0	 1	 200.0	 70.0	 0.0	 0.0	 0.0	 0.0	 0.0	 0.0	 0.0	 0.0	 0.0	 0.0	 0.0;
	42	 410.0	 0.0	 120.0	 0.0	 1.06643	 241.0	 1	 410.0	 70.0	 0.0	 0.0	 0.0	 0.0	 0.0	 0.0	 0.0	 0.0	 0.0	 0.0	 0.0;
	43	 410.0	 0.0	 240.0	 0.0	 1.02531	 482.0	 1	 410.0	 70.0	 0.0	 0.0	 0.0	 0.0	 0.0	 0.0	 0.0	 0.0	 0.0	 0.0	 0.0;
	44	 410.0	 0.0	 240.0	 0.0	 1.02535	 482.0	 1	 410.0	 70.0	 0.0	 0.0	 0.0	 0.0	 0.0	 0.0	 0.0	 0.0	 0.0	 0.0	 0.0;
	45	 42.2	 21.0	 21.0	 0.0	 1.09174	 49.0	 1	 42.2	 39.14	 0.0	 0.0	 0.0	 0.0	 0.0	 0.0	 0.0	 0.0	 0.0	 0.0	 0.0;
	63	 650.0	 90.065	 302.0	 0.0	 1.08732	 473.0	 1	 650.0	 145.0	 0.0	 0.0	 0.0	 0.0	 0.0	 0.0	 0.0	 0.0	 0.0	 0.0	 0.0;
	64	 450.0	 22.204	 311.0	 2.0	 1.08588	 475.0	 1	 450.0	 145.0	 0.0	 0.0	 0.0	 0.0	 0.0	 0.0	 0.0	 0.0	 0.0	 0.0	 0.0;
	67	 750.0	 342.417	 449.0	 0.0	 1.05	 864.0	 1	 750.0	 220.0	 0.0	 0.0	 0.0	 0.0	 0.0	 0.0	 0.0	 0.0	 0.0	 0.0	 0.0;
	83	 225.0	 -88.898	 190.0	 -89.0	 1.08393	 239.0	 1	 225.0	 140.0	 0.0	 0.0	 0.0	 0.0	 0.0	 0.0	 0.0	 0.0	 0.0	 0.0	 0.0;
	84	 225.0	 139.617	 190.0	 -89.0	 1.08404	 251.0	 1	 225.0	 140.0	 0.0	 0.0	 0.0	 0.0	 0.0	 0.0	 0.0	 0.0	 0.0	 0.0	 0.0;
	85	 120.0	 124.995	 125.0	 -50.0	 1.0764	 133.0	 1	 120.0	 40.0	 0.0	 0.0	 0.0	 0.0	 0.0	 0.0	 0.0	 0.0	 0.0	 0.0	 0.0;
	86	 120.0	 -32.594	 125.0	 -50.0	 1.07632	 133.0	 1	 120.0	 40.0	 0.0	 0.0	 0.0	 0.0	 0.0	 0.0	 0.0	 0.0	 0.0	 0.0	 0.0;
	93	 120.0	 5.0	 90.0	 5.0	 1.08175	 123.0	 1	 120.0	 80.0	 0.0	 0.0	 0.0	 0.0	 0.0	 0.0	 0.0	 0.0	 0.0	 0.0	 0.0;
	95	 110.0	 27.0	 68.0	 27.0	 1.0906	 105.0	 1	 110.0	 50.0	 0.0	 0.0	 0.0	 0.0	 0.0	 0.0	 0.0	 0.0	 0.0	 0.0	 0.0;
	97	 87.6	 32.905	 68.0	 27.0	 1.08029	 105.0	 1	 87.6	 83.26	 0.0	 0.0	 0.0	 0.0	 0.0	 0.0	 0.0	 0.0	 0.0	 0.0	 0.0;
	103	 160.0	 -81.987	 177.0	 -82.0	 1.07773	 239.0	 1	 400.0	 160.0	 0.0	 0.0	 0.0	 0.0	 0.0	 0.0	 0.0	 0.0	 0.0	 0.0	 0.0;
	104	 225.0	 204.791	 379.0	 -177.0	 1.07791	 490.0	 1	 225.0	 140.0	 0.0	 0.0	 0.0	 0.0	 0.0	 0.0	 0.0	 0.0	 0.0	 0.0	 0.0;
	105	 430.0	 -165.0	 353.0	 -165.0	 0.97847	 502.0	 1	 430.0	 160.0	 0.0	 0.0	 0.0	 0.0	 0.0	 0.0	 0.0	 0.0	 0.0	 0.0	 0.0;
	109	 250.0	 50.761	 65.0	 0.0	 1.10072	 277.0	 1	 250.0	 80.0	 0.0	 0.0	 0.0	 0.0	 0.0	 0.0	 0.0	 0.0	 0.0	 0.0	 0.0;
	110	 250.0	 50.466	 65.0	 0.0	 1.10071	 280.0	 1	 250.0	 80.0	 0.0	 0.0	 0.0	 0.0	 0.0	 0.0	 0.0	 0.0	 0.0	 0.0	 0.0;
	111	 40.0	 189.291	 270.0	 0.0	 1.11	 401.0	 1	 360.0	 40.0	 0.0	 0.0	 0.0	 0.0	 0.0	 0.0	 0.0	 0.0	 0.0	 0.0	 0.0;
	123	 110.0	 31.86	 40.0	 0.0	 1.10994	 98.0	 1	 110.0	 20.0	 0.0	 0.0	 0.0	 0.0	 0.0	 0.0	 0.0	 0.0	 0.0	 0.0	 0.0;
	124	 125.0	 89.999	 90.0	 0.0	 1.11	 132.0	 1	 125.0	 45.0	 0.0	 0.0	 0.0	 0.0	 0.0	 0.0	 0.0	 0.0	 0.0	 0.0	 0.0;
	125	 768.195	 310.606	 360.0	 0.0	 1.10158	 654.0	 1	 860.0	 70.0	 0.0	 0.0	 0.0	 0.0	 0.0	 0.0	 0.0	 0.0	 0.0	 0.0	 0.0;
	127	 690.0	 0.001	 360.0	 0.0	 1.03368	 540.0	 1	 690.0	 70.0	 0.0	 0.0	 0.0	 0.0	 0.0	 0.0	 0.0	 0.0	 0.0	 0.0	 0.0;
	131	 1046.544	 0.001	 360.0	 0.0	 1.09737	 696.0	 1	 1060.0	 70.0	 0.0	 0.0	 0.0	 0.0	 0.0	 0.0	 0.0	 0.0	 0.0	 0.0	 0.0;
	132	 70.0	 352.541	 480.0	 0.0	 1.09754	 732.0	 1	 600.0	 70.0	 0.0	 0.0	 0.0	 0.0	 0.0	 0.0	 0.0	 0.0	 0.0	 0.0	 0.0;
	139	 600.0	 94.406	 360.0	 0.0	 1.11	 714.0	 1	 600.0	 70.0	 0.0	 0.0	 0.0	 0.0	 0.0	 0.0	 0.0	 0.0	 0.0	 0.0	 0.0;
	140	 200.0	 76.131	 120.0	 0.0	 1.11	 240.0	 1	 200.0	 70.0	 0.0	 0.0	 0.0	 0.0	 0.0	 0.0	 0.0	 0.0	 0.0	 0.0	 0.0;
	176	 600.0	 -119.999	 220.0	 -120.0	 1.03113	 430.0	 1	 600.0	 70.0	 0.0	 0.0	 0.0	 0.0	 0.0	 0.0	 0.0	 0.0	 0.0	 0.0	 0.0;
	177	 200.0	 180.725	 220.0	 -120.0	 1.03129	 430.0	 1	 200.0	 70.0	 0.0	 0.0	 0.0	 0.0	 0.0	 0.0	 0.0	 0.0	 0.0	 0.0	 0.0;
	180	 0.0	 -103.905	 99999.0	 -99999.0	 0.95107	 7485.0	 1	 0.0	 0.0	 0.0	 0.0	 0.0	 0.0	 0.0	 0.0	 0.0	 0.0	 0.0	 0.0	 0.0;
	181	 175.0	 17.109	 99999.0	 -99999.0	 1.11	 210.0	 1	 175.0	 174.0	 0.0	 0.0	 0.0	 0.0	 0.0	 0.0	 0.0	 0.0	 0.0	 0.0	 0.0;
	182	 307.59	 -60.211	 99999.0	 -99999.0	 0.98496	 13465.0	 1	 307.59	 306.0	 0.0	 0.0	 0.0	 0.0	 0.0	 0.0	 0.0	 0.0	 0.0	 0.0	 0.0;
	184	 0.0	 72.392	 99999.0	 -99999.0	 1.07901	 8353.0	 1	 0.0	 0.0	 0.0	 0.0	 0.0	 0.0	 0.0	 0.0	 0.0	 0.0	 0.0	 0.0	 0.0;
	185	 0.0	 -82.284	 99999.0	 -99999.0	 0.95116	 14254.0	 1	 0.0	 0.0	 0.0	 0.0	 0.0	 0.0	 0.0	 0.0	 0.0	 0.0	 0.0	 0.0	 0.0;
	186	 0.0	 -4.524	 99999.0	 -99999.0	 1.10127	 7401.0	 1	 0.0	 0.0	 0.0	 0.0	 0.0	 0.0	 0.0	 0.0	 0.0	 0.0	 0.0	 0.0	 0.0;
	192	 95.0	 31.038	 50.0	 0.0	 1.11945	 114.0	 1	 95.0	 90.25	 0.0	 0.0	 0.0	 0.0	 0.0	 0.0	 0.0	 0.0	 0.0	 0.0	 0.0;
	196	 0.9	 1.0	 1.0	 0.0	 1.0151	 1.0	 1	 0.9	 0.86	 0.0	 0.0	 0.0	 0.0	 0.0	 0.0	 0.0	 0.0	 0.0	 0.0	 0.0;
	198	 0.8	 1.0	 1.0	 0.0	 1.07663	 1.0	 1	 0.8	 0.76	 0.0	 0.0	 0.0	 0.0	 0.0	 0.0	 0.0	 0.0	 0.0	 0.0	 0.0;
	205	 15.0	 4.549	 10.0	 0.0	 1.12	 18.0	 1	 15.0	 14.25	 0.0	 0.0	 0.0	 0.0	 0.0	 0.0	 0.0	 0.0	 0.0	 0.0	 0.0;
	213	 11.0	 0.0	 8.0	 0.0	 1.06545	 13.0	 1	 11.0	 10.45	 0.0	 0.0	 0.0	 0.0	 0.0	 0.0	 0.0	 0.0	 0.0	 0.0	 0.0;
	264	 2.5	 2.0	 2.0	 0.0	 1.07608	 3.0	 1	 2.5	 2.38	 0.0	 0.0	 0.0	 0.0	 0.0	 0.0	 0.0	 0.0	 0.0	 0.0	 0.0;
	269	 6.0	 0.0	 5.0	 0.0	 1.10326	 7.0	 1	 6.0	 5.7	 0.0	 0.0	 0.0	 0.0	 0.0	 0.0	 0.0	 0.0	 0.0	 0.0	 0.0;
	277	 70.0	 36.633	 42.0	 0.0	 1.1184	 84.0	 1	 70.0	 66.5	 0.0	 0.0	 0.0	 0.0	 0.0	 0.0	 0.0	 0.0	 0.0	 0.0	 0.0;
	278	 60.0	 23.508	 40.0	 0.0	 1.12	 72.0	 1	 60.0	 57.0	 0.0	 0.0	 0.0	 0.0	 0.0	 0.0	 0.0	 0.0	 0.0	 0.0	 0.0;
	279	 60.0	 7.346	 40.0	 0.0	 1.11864	 72.0	 1	 60.0	 57.0	 0.0	 0.0	 0.0	 0.0	 0.0	 0.0	 0.0	 0.0	 0.0	 0.0	 0.0;
	281	 120.0	 29.26	 90.0	 0.0	 1.12	 144.0	 1	 120.0	 114.0	 0.0	 0.0	 0.0	 0.0	 0.0	 0.0	 0.0	 0.0	 0.0	 0.0	 0.0;
	282	 40.0	 22.803	 40.0	 0.0	 1.12	 48.0	 1	 40.0	 38.0	 0.0	 0.0	 0.0	 0.0	 0.0	 0.0	 0.0	 0.0	 0.0	 0.0	 0.0;
	289	 2.5	 3.0	 3.0	 0.0	 1.11677	 3.0	 1	 2.5	 2.38	 0.0	 0.0	 0.0	 0.0	 0.0	 0.0	 0.0	 0.0	 0.0	 0.0	 0.0;
	294	 2.0	 0.0	 1.0	 0.0	 1.09725	 2.0	 1	 2.0	 1.9	 0.0	 0.0	 0.0	 0.0	 0.0	 0.0	 0.0	 0.0	 0.0	 0.0	 0.0;
	314	 1.5	 0.0	 1.0	 0.0	 1.0847	 2.0	 1	 1.5	 1.43	 0.0	 0.0	 0.0	 0.0	 0.0	 0.0	 0.0	 0.0	 0.0	 0.0	 0.0;
	328	 44.0	 0.0	 21.0	 0.0	 1.09619	 53.0	 1	 44.0	 41.8	 0.0	 0.0	 0.0	 0.0	 0.0	 0.0	 0.0	 0.0	 0.0	 0.0	 0.0;
	329	 44.0	 21.0	 21.0	 0.0	 1.09931	 53.0	 1	 44.0	 41.8	 0.0	 0.0	 0.0	 0.0	 0.0	 0.0	 0.0	 0.0	 0.0	 0.0	 0.0;
	330	 44.0	 0.0	 21.0	 0.0	 1.1128	 53.0	 1	 44.0	 41.8	 0.0	 0.0	 0.0	 0.0	 0.0	 0.0	 0.0	 0.0	 0.0	 0.0	 0.0;
	331	 43.0	 21.0	 21.0	 0.0	 1.11915	 52.0	 1	 43.0	 40.85	 0.0	 0.0	 0.0	 0.0	 0.0	 0.0	 0.0	 0.0	 0.0	 0.0	 0.0;
	334	 1.5	 1.0	 1.0	 0.0	 1.07855	 2.0	 1	 1.5	 1.43	 0.0	 0.0	 0.0	 0.0	 0.0	 0.0	 0.0	 0.0	 0.0	 0.0	 0.0;
	346	 200.0	 74.975	 120.0	 0.0	 1.12	 180.0	 1	 200.0	 70.0	 0.0	 0.0	 0.0	 0.0	 0.0	 0.0	 0.0	 0.0	 0.0	 0.0	 0.0;
	347	 10.0	 15.0	 15.0	 0.0	 1.10616	 12.0	 1	 10.0	 10.0	 0.0	 0.0	 0.0	 0.0	 0.0	 0.0	 0.0	 0.0	 0.0	 0.0	 0.0;
	359	 1.5	 1.0	 1.0	 0.0	 1.1019	 2.0	 1	 1.5	 1.43	 0.0	 0.0	 0.0	 0.0	 0.0	 0.0	 0.0	 0.0	 0.0	 0.0	 0.0;
	365	 5.1	 3.0	 3.0	 0.0	 1.10077	 6.0	 1	 5.1	 4.85	 0.0	 0.0	 0.0	 0.0	 0.0	 0.0	 0.0	 0.0	 0.0	 0.0	 0.0;
	382	 8.0	 5.0	 5.0	 0.0	 1.06434	 10.0	 1	 8.0	 7.6	 0.0	 0.0	 0.0	 0.0	 0.0	 0.0	 0.0	 0.0	 0.0	 0.0	 0.0;
	383	 8.0	 5.0	 5.0	 0.0	 1.06251	 10.0	 1	 8.0	 7.6	 0.0	 0.0	 0.0	 0.0	 0.0	 0.0	 0.0	 0.0	 0.0	 0.0	 0.0;
	385	 6.0	 4.0	 4.0	 0.0	 1.06587	 7.0	 1	 6.0	 5.7	 0.0	 0.0	 0.0	 0.0	 0.0	 0.0	 0.0	 0.0	 0.0	 0.0	 0.0;
	390	 4.5	 3.0	 3.0	 0.0	 1.07505	 5.0	 1	 4.5	 4.28	 0.0	 0.0	 0.0	 0.0	 0.0	 0.0	 0.0	 0.0	 0.0	 0.0	 0.0;
	395	 10.0	 0.0	 8.0	 0.0	 1.09287	 12.0	 1	 10.0	 9.5	 0.0	 0.0	 0.0	 0.0	 0.0	 0.0	 0.0	 0.0	 0.0	 0.0	 0.0;
	404	 3.0	 3.0	 3.0	 0.0	 1.06668	 4.0	 1	 3.0	 2.85	 0.0	 0.0	 0.0	 0.0	 0.0	 0.0	 0.0	 0.0	 0.0	 0.0	 0.0;
	426	 3.2	 0.0	 2.0	 0.0	 1.05813	 4.0	 1	 3.2	 3.04	 0.0	 0.0	 0.0	 0.0	 0.0	 0.0	 0.0	 0.0	 0.0	 0.0	 0.0;
	444	 1.0	 0.0	 1.0	 0.0	 1.10154	 1.0	 1	 1.0	 0.95	 0.0	 0.0	 0.0	 0.0	 0.0	 0.0	 0.0	 0.0	 0.0	 0.0	 0.0;
	451	 4.5	 3.0	 3.0	 0.0	 1.0942	 5.0	 1	 4.5	 4.28	 0.0	 0.0	 0.0	 0.0	 0.0	 0.0	 0.0	 0.0	 0.0	 0.0	 0.0;
	482	 1.0	 1.0	 1.0	 0.0	 1.09036	 1.0	 1	 1.0	 0.95	 0.0	 0.0	 0.0	 0.0	 0.0	 0.0	 0.0	 0.0	 0.0	 0.0	 0.0;
	492	 2.0	 1.0	 1.0	 0.0	 1.08779	 2.0	 1	 2.0	 1.9	 0.0	 0.0	 0.0	 0.0	 0.0	 0.0	 0.0	 0.0	 0.0	 0.0	 0.0;
	493	 234.0	 99.213	 130.0	 0.0	 1.12	 281.0	 1	 234.0	 222.3	 0.0	 0.0	 0.0	 0.0	 0.0	 0.0	 0.0	 0.0	 0.0	 0.0	 0.0;
	494	 234.0	 127.233	 130.0	 0.0	 1.09382	 281.0	 1	 234.0	 222.3	 0.0	 0.0	 0.0	 0.0	 0.0	 0.0	 0.0	 0.0	 0.0	 0.0	 0.0;
	514	 115.0	 90.0	 90.0	 0.0	 1.09008	 138.0	 1	 115.0	 109.25	 0.0	 0.0	 0.0	 0.0	 0.0	 0.0	 0.0	 0.0	 0.0	 0.0	 0.0;
	515	 115.0	 75.002	 90.0	 0.0	 1.06463	 138.0	 1	 115.0	 109.25	 0.0	 0.0	 0.0	 0.0	 0.0	 0.0	 0.0	 0.0	 0.0	 0.0	 0.0;
	525	 6.0	 4.0	 4.0	 0.0	 1.08301	 7.0	 1	 6.0	 5.7	 0.0	 0.0	 0.0	 0.0	 0.0	 0.0	 0.0	 0.0	 0.0	 0.0	 0.0;
	536	 6.0	 6.0	 6.0	 0.0	 1.06742	 7.0	 1	 6.0	 5.7	 0.0	 0.0	 0.0	 0.0	 0.0	 0.0	 0.0	 0.0	 0.0	 0.0	 0.0;
	537	 3.5	 3.0	 3.0	 0.0	 1.07159	 4.0	 1	 3.5	 3.33	 0.0	 0.0	 0.0	 0.0	 0.0	 0.0	 0.0	 0.0	 0.0	 0.0	 0.0;
	556	 2.7	 1.0	 1.0	 0.0	 1.07213	 3.0	 1	 2.7	 2.57	 0.0	 0.0	 0.0	 0.0	 0.0	 0.0	 0.0	 0.0	 0.0	 0.0	 0.0;
	580	 1.6	 1.0	 1.0	 0.0	 1.0881	 2.0	 1	 1.6	 1.52	 0.0	 0.0	 0.0	 0.0	 0.0	 0.0	 0.0	 0.0	 0.0	 0.0	 0.0;
	584	 2.7	 2.0	 2.0	 0.0	 1.05978	 3.0	 1	 2.7	 2.57	 0.0	 0.0	 0.0	 0.0	 0.0	 0.0	 0.0	 0.0	 0.0	 0.0	 0.0;
	585	 4.0	 2.0	 2.0	 0.0	 1.06011	 5.0	 1	 4.0	 3.8	 0.0	 0.0	 0.0	 0.0	 0.0	 0.0	 0.0	 0.0	 0.0	 0.0	 0.0;
	607	 0.8	 0.0	 0.0	 0.0	 1.05509	 1.0	 1	 0.8	 0.76	 0.0	 0.0	 0.0	 0.0	 0.0	 0.0	 0.0	 0.0	 0.0	 0.0	 0.0;
	612	 70.0	 62.684	 120.0	 0.0	 1.12	 256.0	 1	 200.0	 70.0	 0.0	 0.0	 0.0	 0.0	 0.0	 0.0	 0.0	 0.0	 0.0	 0.0	 0.0;
	613	 113.424	 104.263	 120.0	 0.0	 1.12	 256.0	 1	 200.0	 70.0	 0.0	 0.0	 0.0	 0.0	 0.0	 0.0	 0.0	 0.0	 0.0	 0.0	 0.0;
	615	 1.4	 0.0	 1.0	 0.0	 1.07753	 2.0	 1	 1.4	 1.33	 0.0	 0.0	 0.0	 0.0	 0.0	 0.0	 0.0	 0.0	 0.0	 0.0	 0.0;
	623	 7.6	 5.0	 5.0	 0.0	 1.06466	 9.0	 1	 7.6	 7.22	 0.0	 0.0	 0.0	 0.0	 0.0	 0.0	 0.0	 0.0	 0.0	 0.0	 0.0;
	639	 9.6	 4.0	 4.0	 0.0	 1.08601	 12.0	 1	 9.6	 9.12	 0.0	 0.0	 0.0	 0.0	 0.0	 0.0	 0.0	 0.0	 0.0	 0.0	 0.0;
	651	 4.7	 2.0	 2.0	 0.0	 1.07956	 6.0	 1	 4.7	 4.47	 0.0	 0.0	 0.0	 0.0	 0.0	 0.0	 0.0	 0.0	 0.0	 0.0	 0.0;
	654	 1.4	 0.0	 1.0	 0.0	 1.07485	 2.0	 1	 1.4	 1.33	 0.0	 0.0	 0.0	 0.0	 0.0	 0.0	 0.0	 0.0	 0.0	 0.0	 0.0;
	664	 6.2	 0.0	 6.0	 0.0	 1.06013	 7.0	 1	 6.2	 5.89	 0.0	 0.0	 0.0	 0.0	 0.0	 0.0	 0.0	 0.0	 0.0	 0.0	 0.0;
	670	 2.7	 0.0	 2.0	 0.0	 1.05282	 3.0	 1	 2.7	 2.57	 0.0	 0.0	 0.0	 0.0	 0.0	 0.0	 0.0	 0.0	 0.0	 0.0	 0.0;
	674	 1.0	 0.0	 0.0	 0.0	 1.07235	 1.0	 1	 1.0	 0.95	 0.0	 0.0	 0.0	 0.0	 0.0	 0.0	 0.0	 0.0	 0.0	 0.0	 0.0;
	688	 202.0	 0.0	 120.0	 0.0	 1.0727	 242.0	 1	 202.0	 70.0	 0.0	 0.0	 0.0	 0.0	 0.0	 0.0	 0.0	 0.0	 0.0	 0.0	 0.0;
	692	 1.4	 0.0	 1.0	 0.0	 1.09764	 2.0	 1	 1.4	 1.33	 0.0	 0.0	 0.0	 0.0	 0.0	 0.0	 0.0	 0.0	 0.0	 0.0	 0.0;
	699	 3.8	 0.0	 2.0	 0.0	 1.05348	 5.0	 1	 3.8	 3.61	 0.0	 0.0	 0.0	 0.0	 0.0	 0.0	 0.0	 0.0	 0.0	 0.0	 0.0;
	712	 1.2	 1.0	 1.0	 0.0	 1.0666	 1.0	 1	 1.2	 1.14	 0.0	 0.0	 0.0	 0.0	 0.0	 0.0	 0.0	 0.0	 0.0	 0.0	 0.0;
	730	 6.9	 0.0	 3.0	 0.0	 1.07352	 8.0	 1	 6.9	 6.56	 0.0	 0.0	 0.0	 0.0	 0.0	 0.0	 0.0	 0.0	 0.0	 0.0	 0.0;
	732	 1.1	 0.0	 1.0	 0.0	 1.07327	 1.0	 1	 1.1	 1.05	 0.0	 0.0	 0.0	 0.0	 0.0	 0.0	 0.0	 0.0	 0.0	 0.0	 0.0;
	735	 4.1	 2.0	 2.0	 0.0	 1.08193	 5.0	 1	 4.1	 3.9	 0.0	 0.0	 0.0	 0.0	 0.0	 0.0	 0.0	 0.0	 0.0	 0.0	 0.0;
	740	 4.0	 0.0	 1.0	 0.0	 1.07265	 5.0	 1	 4.0	 3.8	 0.0	 0.0	 0.0	 0.0	 0.0	 0.0	 0.0	 0.0	 0.0	 0.0	 0.0;
	744	 134.0	 0.0	 60.0	 0.0	 1.07769	 161.0	 1	 134.0	 127.3	 0.0	 0.0	 0.0	 0.0	 0.0	 0.0	 0.0	 0.0	 0.0	 0.0	 0.0;
	754	 80.0	 14.945	 30.0	 0.0	 1.08975	 54.0	 1	 80.0	 10.0	 0.0	 0.0	 0.0	 0.0	 0.0	 0.0	 0.0	 0.0	 0.0	 0.0	 0.0;
	755	 250.0	 16.947	 80.0	 0.0	 1.09001	 110.0	 1	 250.0	 85.0	 0.0	 0.0	 0.0	 0.0	 0.0	 0.0	 0.0	 0.0	 0.0	 0.0	 0.0;
	760	 3.1	 2.0	 2.0	 0.0	 1.06674	 4.0	 1	 3.1	 2.95	 0.0	 0.0	 0.0	 0.0	 0.0	 0.0	 0.0	 0.0	 0.0	 0.0	 0.0;
	766	 2.1	 1.0	 1.0	 0.0	 1.06338	 3.0	 1	 2.1	 2.0	 0.0	 0.0	 0.0	 0.0	 0.0	 0.0	 0.0	 0.0	 0.0	 0.0	 0.0;
	784	 0.7	 0.0	 0.0	 0.0	 1.07574	 1.0	 1	 0.7	 0.67	 0.0	 0.0	 0.0	 0.0	 0.0	 0.0	 0.0	 0.0	 0.0	 0.0	 0.0;
	790	 49.8	 35.0	 35.0	 35.0	 1.07584	 60.0	 1	 49.8	 47.31	 0.0	 0.0	 0.0	 0.0	 0.0	 0.0	 0.0	 0.0	 0.0	 0.0	 0.0;
	795	 1.89	 1.0	 1.0	 1.0	 1.07686	 2.0	 1	 1.89	 1.8	 0.0	 0.0	 0.0	 0.0	 0.0	 0.0	 0.0	 0.0	 0.0	 0.0	 0.0;
	798	 2.99	 3.0	 3.0	 3.0	 1.08773	 4.0	 1	 2.99	 2.84	 0.0	 0.0	 0.0	 0.0	 0.0	 0.0	 0.0	 0.0	 0.0	 0.0	 0.0;
	814	 44.92	 16.183	 42.0	 0.0	 1.05404	 54.0	 1	 44.92	 42.67	 0.0	 0.0	 0.0	 0.0	 0.0	 0.0	 0.0	 0.0	 0.0	 0.0	 0.0;
	834	 55.0	 83.0	 83.0	 0.0	 1.0971	 110.0	 1	 55.0	 23.0	 0.0	 0.0	 0.0	 0.0	 0.0	 0.0	 0.0	 0.0	 0.0	 0.0	 0.0;
	878	 2.99	 0.0	 0.0	 0.0	 1.09115	 4.0	 1	 2.99	 2.84	 0.0	 0.0	 0.0	 0.0	 0.0	 0.0	 0.0	 0.0	 0.0	 0.0	 0.0;
	884	 2.49	 0.0	 0.0	 0.0	 1.05983	 3.0	 1	 2.49	 2.37	 0.0	 0.0	 0.0	 0.0	 0.0	 0.0	 0.0	 0.0	 0.0	 0.0	 0.0;
	892	 31.87	 34.92	 42.0	 6.0	 1.06767	 38.0	 1	 31.87	 30.28	 0.0	 0.0	 0.0	 0.0	 0.0	 0.0	 0.0	 0.0	 0.0	 0.0	 0.0;
	895	 8.96	 7.0	 7.0	 7.0	 1.08742	 11.0	 1	 8.96	 8.51	 0.0	 0.0	 0.0	 0.0	 0.0	 0.0	 0.0	 0.0	 0.0	 0.0	 0.0;
	901	 3.68	 2.0	 2.0	 2.0	 1.08133	 4.0	 1	 3.68	 3.5	 0.0	 0.0	 0.0	 0.0	 0.0	 0.0	 0.0	 0.0	 0.0	 0.0	 0.0;
	910	 4.58	 3.0	 3.0	 3.0	 1.05461	 6.0	 1	 4.58	 4.35	 0.0	 0.0	 0.0	 0.0	 0.0	 0.0	 0.0	 0.0	 0.0	 0.0	 0.0;
	911	 370.0	 48.037	 224.0	 0.0	 1.1139	 415.0	 1	 370.0	 280.0	 0.0	 0.0	 0.0	 0.0	 0.0	 0.0	 0.0	 0.0	 0.0	 0.0	 0.0;
	912	 370.0	 65.795	 224.0	 0.0	 1.11436	 415.0	 1	 370.0	 280.0	 0.0	 0.0	 0.0	 0.0	 0.0	 0.0	 0.0	 0.0	 0.0	 0.0	 0.0;
	914	 15.93	 10.0	 10.0	 10.0	 1.08628	 19.0	 1	 15.93	 15.13	 0.0	 0.0	 0.0	 0.0	 0.0	 0.0	 0.0	 0.0	 0.0	 0.0	 0.0;
	917	 2.09	 0.0	 0.0	 0.0	 1.09094	 3.0	 1	 2.09	 1.99	 0.0	 0.0	 0.0	 0.0	 0.0	 0.0	 0.0	 0.0	 0.0	 0.0	 0.0;
	919	 21.91	 12.0	 12.0	 12.0	 1.09025	 26.0	 1	 21.91	 20.81	 0.0	 0.0	 0.0	 0.0	 0.0	 0.0	 0.0	 0.0	 0.0	 0.0	 0.0;
	920	 1.99	 0.0	 0.0	 0.0	 1.08427	 2.0	 1	 1.99	 1.89	 0.0	 0.0	 0.0	 0.0	 0.0	 0.0	 0.0	 0.0	 0.0	 0.0	 0.0;
	929	 63.73	 29.639	 50.0	 29.0	 1.09237	 77.0	 1	 63.73	 60.54	 0.0	 0.0	 0.0	 0.0	 0.0	 0.0	 0.0	 0.0	 0.0	 0.0	 0.0;
	959	 2.49	 1.0	 1.0	 1.0	 1.03256	 3.0	 1	 2.49	 2.37	 0.0	 0.0	 0.0	 0.0	 0.0	 0.0	 0.0	 0.0	 0.0	 0.0	 0.0;
	968	 0.7	 0.0	 0.0	 0.0	 1.08064	 1.0	 1	 0.7	 0.67	 0.0	 0.0	 0.0	 0.0	 0.0	 0.0	 0.0	 0.0	 0.0	 0.0	 0.0;
	993	 3.98	 1.0	 1.0	 1.0	 1.06288	 5.0	 1	 3.98	 3.78	 0.0	 0.0	 0.0	 0.0	 0.0	 0.0	 0.0	 0.0	 0.0	 0.0	 0.0;
	994	 1.99	 1.0	 1.0	 1.0	 1.06287	 2.0	 1	 1.99	 1.89	 0.0	 0.0	 0.0	 0.0	 0.0	 0.0	 0.0	 0.0	 0.0	 0.0	 0.0;
	995	 20.0	 38.0	 38.0	 0.0	 1.09147	 60.0	 1	 100.0	 20.0	 0.0	 0.0	 0.0	 0.0	 0.0	 0.0	 0.0	 0.0	 0.0	 0.0	 0.0;
	996	 20.0	 15.433	 38.0	 0.0	 1.09039	 60.0	 1	 50.0	 20.0	 0.0	 0.0	 0.0	 0.0	 0.0	 0.0	 0.0	 0.0	 0.0	 0.0	 0.0;
	997	 20.0	 38.0	 38.0	 0.0	 1.05671	 60.0	 1	 50.0	 20.0	 0.0	 0.0	 0.0	 0.0	 0.0	 0.0	 0.0	 0.0	 0.0	 0.0	 0.0;
	1004	 4.28	 3.0	 3.0	 3.0	 1.09425	 5.0	 1	 4.28	 4.07	 0.0	 0.0	 0.0	 0.0	 0.0	 0.0	 0.0	 0.0	 0.0	 0.0	 0.0;
	1024	 0.1	 0.0	 0.0	 0.0	 1.09639	 0.0	 1	 0.1	 0.1	 0.0	 0.0	 0.0	 0.0	 0.0	 0.0	 0.0	 0.0	 0.0	 0.0	 0.0;
	1027	 24.9	 13.0	 13.0	 13.0	 1.0935	 30.0	 1	 24.9	 23.66	 0.0	 0.0	 0.0	 0.0	 0.0	 0.0	 0.0	 0.0	 0.0	 0.0	 0.0;
	1028	 2.99	 3.0	 3.0	 3.0	 1.09355	 4.0	 1	 2.99	 2.84	 0.0	 0.0	 0.0	 0.0	 0.0	 0.0	 0.0	 0.0	 0.0	 0.0	 0.0;
	1029	 24.9	 14.0	 14.0	 14.0	 1.09287	 30.0	 1	 24.9	 23.66	 0.0	 0.0	 0.0	 0.0	 0.0	 0.0	 0.0	 0.0	 0.0	 0.0	 0.0;
	1053	 59.76	 25.381	 53.0	 0.0	 1.05458	 72.0	 1	 59.76	 56.77	 0.0	 0.0	 0.0	 0.0	 0.0	 0.0	 0.0	 0.0	 0.0	 0.0	 0.0;
	1054	 29.88	 31.0	 31.0	 0.0	 1.08359	 36.0	 1	 29.88	 28.39	 0.0	 0.0	 0.0	 0.0	 0.0	 0.0	 0.0	 0.0	 0.0	 0.0	 0.0;
	1105	 7.97	 10.0	 10.0	 10.0	 1.07641	 10.0	 1	 7.97	 7.57	 0.0	 0.0	 0.0	 0.0	 0.0	 0.0	 0.0	 0.0	 0.0	 0.0	 0.0;
	1106	 22.91	 13.0	 13.0	 13.0	 1.08277	 28.0	 1	 22.91	 21.76	 0.0	 0.0	 0.0	 0.0	 0.0	 0.0	 0.0	 0.0	 0.0	 0.0	 0.0;
	1107	 10.56	 3.0	 3.0	 3.0	 1.07891	 13.0	 1	 10.56	 10.03	 0.0	 0.0	 0.0	 0.0	 0.0	 0.0	 0.0	 0.0	 0.0	 0.0	 0.0;
	1138	 44.82	 41.0	 41.0	 0.0	 1.09117	 54.0	 1	 44.82	 42.58	 0.0	 0.0	 0.0	 0.0	 0.0	 0.0	 0.0	 0.0	 0.0	 0.0	 0.0;
	1140	 230.0	 77.764	 199.0	 -87.0	 1.10894	 252.0	 1	 230.0	 70.0	 0.0	 0.0	 0.0	 0.0	 0.0	 0.0	 0.0	 0.0	 0.0	 0.0	 0.0;
	1141	 70.0	 84.803	 190.0	 -89.0	 1.10102	 251.0	 1	 225.0	 70.0	 0.0	 0.0	 0.0	 0.0	 0.0	 0.0	 0.0	 0.0	 0.0	 0.0	 0.0;
	1175	 37.84	 20.0	 20.0	 20.0	 1.09258	 45.0	 1	 37.84	 35.95	 0.0	 0.0	 0.0	 0.0	 0.0	 0.0	 0.0	 0.0	 0.0	 0.0	 0.0;
	1182	 40.0	 -4.802	 125.0	 -50.0	 1.07435	 133.0	 1	 120.0	 40.0	 0.0	 0.0	 0.0	 0.0	 0.0	 0.0	 0.0	 0.0	 0.0	 0.0	 0.0;
	1183	 120.0	 -14.149	 125.0	 -50.0	 1.05228	 133.0	 1	 120.0	 40.0	 0.0	 0.0	 0.0	 0.0	 0.0	 0.0	 0.0	 0.0	 0.0	 0.0	 0.0;
	1184	 49.903	 108.907	 125.0	 -50.0	 1.08828	 133.0	 1	 120.0	 40.0	 0.0	 0.0	 0.0	 0.0	 0.0	 0.0	 0.0	 0.0	 0.0	 0.0	 0.0;
	1191	 106.56	 34.337	 129.0	 -47.0	 1.10105	 128.0	 1	 106.56	 101.23	 0.0	 0.0	 0.0	 0.0	 0.0	 0.0	 0.0	 0.0	 0.0	 0.0	 0.0;
	1192	 250.0	 75.939	 125.0	 -50.0	 1.09347	 123.0	 1	 250.0	 80.0	 0.0	 0.0	 0.0	 0.0	 0.0	 0.0	 0.0	 0.0	 0.0	 0.0	 0.0;
	1201	 99.59	 0.051	 90.0	 0.0	 1.0978	 120.0	 1	 99.59	 94.61	 0.0	 0.0	 0.0	 0.0	 0.0	 0.0	 0.0	 0.0	 0.0	 0.0	 0.0;
	1202	 99.59	 73.889	 90.0	 0.0	 1.09783	 120.0	 1	 99.59	 94.61	 0.0	 0.0	 0.0	 0.0	 0.0	 0.0	 0.0	 0.0	 0.0	 0.0	 0.0;
	1203	 99.59	 47.353	 90.0	 0.0	 1.09499	 120.0	 1	 99.59	 94.61	 0.0	 0.0	 0.0	 0.0	 0.0	 0.0	 0.0	 0.0	 0.0	 0.0	 0.0;
	1232	 51.79	 13.66	 41.0	 0.0	 1.07288	 62.0	 1	 51.79	 49.2	 0.0	 0.0	 0.0	 0.0	 0.0	 0.0	 0.0	 0.0	 0.0	 0.0	 0.0;
	1233	 14.94	 13.378	 41.0	 0.0	 1.06422	 18.0	 1	 14.94	 14.19	 0.0	 0.0	 0.0	 0.0	 0.0	 0.0	 0.0	 0.0	 0.0	 0.0	 0.0;
	1244	 18.92	 20.0	 20.0	 20.0	 1.07741	 23.0	 1	 18.92	 17.97	 0.0	 0.0	 0.0	 0.0	 0.0	 0.0	 0.0	 0.0	 0.0	 0.0	 0.0;
	1247	 15.93	 12.0	 12.0	 12.0	 1.0826	 19.0	 1	 15.93	 15.13	 0.0	 0.0	 0.0	 0.0	 0.0	 0.0	 0.0	 0.0	 0.0	 0.0	 0.0;
	1250	 197.19	 47.54	 151.0	 0.0	 1.05548	 237.0	 1	 197.19	 187.33	 0.0	 0.0	 0.0	 0.0	 0.0	 0.0	 0.0	 0.0	 0.0	 0.0	 0.0;
	1268	 0.5	 0.0	 0.0	 0.0	 1.05045	 1.0	 1	 0.5	 0.48	 0.0	 0.0	 0.0	 0.0	 0.0	 0.0	 0.0	 0.0	 0.0	 0.0	 0.0;
	1316	 1.0	 0.0	 0.0	 0.0	 1.09405	 1.0	 1	 1.0	 0.95	 0.0	 0.0	 0.0	 0.0	 0.0	 0.0	 0.0	 0.0	 0.0	 0.0	 0.0;
	1325	 1.39	 0.0	 0.0	 0.0	 1.09393	 2.0	 1	 1.39	 1.32	 0.0	 0.0	 0.0	 0.0	 0.0	 0.0	 0.0	 0.0	 0.0	 0.0	 0.0;
	1349	 1.49	 0.0	 0.0	 0.0	 1.03611	 2.0	 1	 1.49	 1.42	 0.0	 0.0	 0.0	 0.0	 0.0	 0.0	 0.0	 0.0	 0.0	 0.0	 0.0;
	1356	 1.0	 2.0	 2.0	 2.0	 1.07543	 1.0	 1	 1.0	 0.95	 0.0	 0.0	 0.0	 0.0	 0.0	 0.0	 0.0	 0.0	 0.0	 0.0	 0.0;
	1359	 0.8	 1.0	 1.0	 1.0	 1.05554	 1.0	 1	 0.8	 0.76	 0.0	 0.0	 0.0	 0.0	 0.0	 0.0	 0.0	 0.0	 0.0	 0.0	 0.0;
	1393	 12.75	 0.0	 11.0	 0.0	 1.05608	 15.0	 1	 12.75	 12.11	 0.0	 0.0	 0.0	 0.0	 0.0	 0.0	 0.0	 0.0	 0.0	 0.0	 0.0;
	1403	 4.28	 1.0	 1.0	 1.0	 1.05511	 5.0	 1	 4.28	 4.07	 0.0	 0.0	 0.0	 0.0	 0.0	 0.0	 0.0	 0.0	 0.0	 0.0	 0.0;
	1416	 362.901	 47.618	 180.0	 10.0	 1.1106	 246.0	 1	 371.0	 80.0	 0.0	 0.0	 0.0	 0.0	 0.0	 0.0	 0.0	 0.0	 0.0	 0.0	 0.0;
	1417	 120.0	 36.363	 120.0	 5.0	 1.10651	 123.0	 1	 120.0	 80.0	 0.0	 0.0	 0.0	 0.0	 0.0	 0.0	 0.0	 0.0	 0.0	 0.0	 0.0;
	1418	 20.0	 5.0	 90.0	 5.0	 1.0565	 123.0	 1	 20.0	 5.0	 0.0	 0.0	 0.0	 0.0	 0.0	 0.0	 0.0	 0.0	 0.0	 0.0	 0.0;
	1426	 495.0	 46.962	 68.0	 27.0	 1.10668	 106.0	 1	 495.0	 20.0	 0.0	 0.0	 0.0	 0.0	 0.0	 0.0	 0.0	 0.0	 0.0	 0.0	 0.0;
	1429	 0.2	 0.0	 0.0	 0.0	 1.04861	 0.0	 1	 0.2	 0.19	 0.0	 0.0	 0.0	 0.0	 0.0	 0.0	 0.0	 0.0	 0.0	 0.0	 0.0;
	1469	 0.6	 0.0	 0.0	 0.0	 1.05635	 1.0	 1	 0.6	 0.57	 0.0	 0.0	 0.0	 0.0	 0.0	 0.0	 0.0	 0.0	 0.0	 0.0	 0.0;
	1475	 2.09	 2.0	 2.0	 2.0	 1.07308	 3.0	 1	 2.09	 1.99	 0.0	 0.0	 0.0	 0.0	 0.0	 0.0	 0.0	 0.0	 0.0	 0.0	 0.0;
	1504	 31.17	 2.0	 2.0	 2.0	 1.05602	 37.0	 1	 31.17	 29.61	 0.0	 0.0	 0.0	 0.0	 0.0	 0.0	 0.0	 0.0	 0.0	 0.0	 0.0;
	1505	 48.8	 4.0	 4.0	 4.0	 1.08481	 59.0	 1	 48.8	 46.36	 0.0	 0.0	 0.0	 0.0	 0.0	 0.0	 0.0	 0.0	 0.0	 0.0	 0.0;
	1514	 2.29	 1.0	 1.0	 1.0	 1.10375	 3.0	 1	 2.29	 2.18	 0.0	 0.0	 0.0	 0.0	 0.0	 0.0	 0.0	 0.0	 0.0	 0.0	 0.0;
	1534	 0.3	 0.0	 0.0	 0.0	 1.05298	 0.0	 1	 0.3	 0.29	 0.0	 0.0	 0.0	 0.0	 0.0	 0.0	 0.0	 0.0	 0.0	 0.0	 0.0;
	1536	 160.0	 58.435	 190.0	 -89.0	 1.08796	 251.0	 1	 225.0	 160.0	 0.0	 0.0	 0.0	 0.0	 0.0	 0.0	 0.0	 0.0	 0.0	 0.0	 0.0;
	1537	 225.0	 61.595	 203.0	 -95.0	 1.08635	 255.0	 1	 225.0	 160.0	 0.0	 0.0	 0.0	 0.0	 0.0	 0.0	 0.0	 0.0	 0.0	 0.0	 0.0;
	1538	 215.0	 53.241	 190.0	 -89.0	 1.09082	 255.0	 1	 215.0	 70.0	 0.0	 0.0	 0.0	 0.0	 0.0	 0.0	 0.0	 0.0	 0.0	 0.0	 0.0;
	1542	 8.96	 3.0	 3.0	 3.0	 1.08473	 11.0	 1	 8.96	 8.51	 0.0	 0.0	 0.0	 0.0	 0.0	 0.0	 0.0	 0.0	 0.0	 0.0	 0.0;
	1543	 1.2	 0.0	 0.0	 0.0	 1.08239	 1.0	 1	 1.2	 1.14	 0.0	 0.0	 0.0	 0.0	 0.0	 0.0	 0.0	 0.0	 0.0	 0.0	 0.0;
	1550	 1.79	 1.0	 1.0	 1.0	 1.05534	 2.0	 1	 1.79	 1.7	 0.0	 0.0	 0.0	 0.0	 0.0	 0.0	 0.0	 0.0	 0.0	 0.0	 0.0;
	1566	 54.77	 26.176	 47.0	 20.0	 1.0786	 66.0	 1	 54.77	 52.03	 0.0	 0.0	 0.0	 0.0	 0.0	 0.0	 0.0	 0.0	 0.0	 0.0	 0.0;
	1587	 63.74	 27.0	 27.0	 27.0	 1.0799	 77.0	 1	 63.74	 60.55	 0.0	 0.0	 0.0	 0.0	 0.0	 0.0	 0.0	 0.0	 0.0	 0.0	 0.0;
	1600	 17.43	 3.0	 3.0	 3.0	 1.07459	 21.0	 1	 17.43	 16.56	 0.0	 0.0	 0.0	 0.0	 0.0	 0.0	 0.0	 0.0	 0.0	 0.0	 0.0;
	1602	 40.0	 19.576	 90.0	 0.0	 1.08938	 144.0	 1	 120.0	 40.0	 0.0	 0.0	 0.0	 0.0	 0.0	 0.0	 0.0	 0.0	 0.0	 0.0	 0.0;
	1603	 120.0	 34.384	 90.0	 0.0	 1.10827	 144.0	 1	 120.0	 40.0	 0.0	 0.0	 0.0	 0.0	 0.0	 0.0	 0.0	 0.0	 0.0	 0.0	 0.0;
	1609	 0.3	 0.0	 0.0	 0.0	 1.07041	 0.0	 1	 0.3	 0.29	 0.0	 0.0	 0.0	 0.0	 0.0	 0.0	 0.0	 0.0	 0.0	 0.0	 0.0;
	1617	 2.0	 0.0	 0.0	 0.0	 1.10905	 2.0	 1	 2.0	 1.9	 0.0	 0.0	 0.0	 0.0	 0.0	 0.0	 0.0	 0.0	 0.0	 0.0	 0.0;
	1620	 1.6	 0.0	 0.0	 0.0	 1.10829	 2.0	 1	 1.6	 1.52	 0.0	 0.0	 0.0	 0.0	 0.0	 0.0	 0.0	 0.0	 0.0	 0.0	 0.0;
...
];

%% generator cost data
%	2	startup	shutdown	n	c(n-1)	...	c0
mpc.gencost = [
	2	 0.0	 0.0	 3	   0.000000	 117.950000	   0.000000;
	2	 0.0	 0.0	 3	   0.000000	  48.890000	   0.000000;
	2	 0.0	 0.0	 3	   0.000000	  98.470000	   0.000000;
	2	 0.0	 0.0	 3	   0.000000	 128.730000	   0.000000;
	2	 0.0	 0.0	 3	   0.000000	 158.230000	   0.000000;
	2	 0.0	 0.0	 3	   0.000000	 165.620000	   0.000000;
	2	 0.0	 0.0	 3	   0.000000	  71.220000	   0.000000;
	2	 0.0	 0.0	 3	   0.000000	 102.250000	   0.000000;
	2	 0.0	 0.0	 3	   0.000000	 147.830000	   0.000000;
	2	 0.0	 0.0	 3	   0.000000	  75.370000	   0.000000;
	2	 0.0	 0.0	 3	   0.000000	  86.010000	   0.000000;
	2	 0.0	 0.0	 3	   0.000000	   0.000000	   0.000000;
	2	 0.0	 0.0	 3	   0.000000	  68.740000	   0.000000;
	2	 0.0	 0.0	 3	   0.000000	  81.910000	   0.000000;
	2	 0.0	 0.0	 3	   0.000000	  81.880000	   0.000000;
	2	 0.0	 0.0	 3	   0.000000	  58.780000	   0.000000;
	2	 0.0	 0.0	 3	   0.000000	  85.570000	   0.000000;
	2	 0.0	 0.0	 3	   0.000000	 101.380000	   0.000000;
	2	 0.0	 0.0	 3	   0.000000	 122.430000	   0.000000;
	2	 0.0	 0.0	 3	   0.000000	  96.620000	   0.000000;
	2	 0.0	 0.0	 3	   0.000000	 106.730000	   0.000000;
	2	 0.0	 0.0	 3	   0.000000	   0.000000	   0.000000;
	2	 0.0	 0.0	 3	   0.000000	 151.940000	   0.000000;
	2	 0.0	 0.0	 3	   0.000000	 107.510000	   0.000000;
	2	 0.0	 0.0	 3	   0.000000	 103.530000	   0.000000;
	2	 0.0	 0.0	 3	   0.000000	   0.000000	   0.000000;
	2	 0.0	 0.0	 3	   0.000000	   0.000000	   0.000000;
	2	 0.0	 0.0	 3	   0.000000	 136.480000	   0.000000;
	2	 0.0	 0.0	 3	   0.000000	 157.460000	   0.000000;
	2	 0.0	 0.0	 3	   0.000000	  83.970000	   0.000000;
	2	 0.0	 0.0	 3	   0.000000	 170.740000	   0.000000;
	2	 0.0	 0.0	 3	   0.000000	  80.910000	   0.000000;
	2	 0.0	 0.0	 3	   0.000000	 147.600000	   0.000000;
	2	 0.0	 0.0	 3	   0.000000	 158.750000	   0.000000;
	2	 0.0	 0.0	 3	   0.000000	 146.940000	   0.000000;
	2	 0.0	 0.0	 3	   0.000000	  96.320000	   0.000000;
	2	 0.0	 0.0	 3	   0.000000	   0.000000	   0.000000;
	2	 0.0	 0.0	 3	   0.000000	   0.000000	   0.000000;
	2	 0.0	 0.0	 3	   0.000000	   0.000000	   0.000000;
	2	 0.0	 0.0	 3	   0.000000	   0.000000	   0.000000;
	2	 0.0	 0.0	 3	   0.000000	   0.000000	   0.000000;
	2	 0.0	 0.0	 3	   0.000000	   0.000000	   0.000000;
	2	 0.0	 0.0	 3	   0.000000	   0.000000	   0.000000;
	2	 0.0	 0.0	 3	   0.000000	   0.000000	   0.000000;
	2	 0.0	 0.0	 3	   0.000000	   0.000000	   0.000000;
	2	 0.0	 0.0	 3	   0.000000	   0.000000	   0.000000;
	2	 0.0	 0.0	 3	   0.000000	   0.000000	   0.000000;
	2	 0.0	 0.0	 3	   0.000000	   0.000000	   0.000000;
	2	 0.0	 0.0	 3	   0.000000	   0.000000	   0.000000;
	2	 0.0	 0.0	 3	   0.000000	   0.000000	   0.000000;
	2	 0.0	 0.0	 3	   0.000000	   0.000000	   0.000000;
	2	 0.0	 0.0	 3	   0.000000	   0.000000	   0.000000;
	2	 0.0	 0.0	 3	   0.000000	   0.000000	   0.000000;
	2	 0.0	 0.0	 3	   0.000000	   0.000000	   0.000000;
	2	 0.0	 0.0	 3	   0.000000	   0.000000	   0.000000;
	2	 0.0	 0.0	 3	   0.000000	   0.000000	   0.000000;
	2	 0.0	 0.0	 3	   0.000000	   0.000000	   0.000000;
	2	 0.0	 0.0	 3	   0.000000	   0.000000	   0.000000;
	2	 0.0	 0.0	 3	   0.000000	   0.000000	   0.000000;
	2	 0.0	 0.0	 3	   0.000000	   0.000000	   0.000000;
	2	 0.0	 0.0	 3	   0.000000	   0.000000	   0.000000;
	2	 0.0	 0.0	 3	   0.000000	   0.000000	   0.000000;
	2	 0.0	 0.0	 3	   0.000000	   0.000000	   0.000000;
	2	 0.0	 0.0	 3	   0.000000	   0.000000	   0.000000;
	2	 0.0	 0.0	 3	   0.000000	 134.980000	   0.000000;
	2	 0.0	 0.0	 3	   0.000000	   0.000000	   0.000000;
	2	 0.0	 0.0	 3	   0.000000	   0.000000	   0.000000;
	2	 0.0	 0.0	 3	   0.000000	   0.000000	   0.000000;
	2	 0.0	 0.0	 3	   0.000000	   0.000000	   0.000000;
	2	 0.0	 0.0	 3	   0.000000	   0.000000	   0.000000;
	2	 0.0	 0.0	 3	   0.000000	   0.000000	   0.000000;
	2	 0.0	 0.0	 3	   0.000000	   0.000000	   0.000000;
	2	 0.0	 0.0	 3	   0.000000	   0.000000	   0.000000;
	2	 0.0	 0.0	 3	   0.000000	   0.000000	   0.000000;
	2	 0.0	 0.0	 3	   0.000000	   0.000000	   0.000000;
	2	 0.0	 0.0	 3	   0.000000	   0.000000	   0.000000;
	2	 0.0	 0.0	 3	   0.000000	   0.000000	   0.000000;
	2	 0.0	 0.0	 3	   0.000000	   0.000000	   0.000000;
	2	 0.0	 0.0	 3	   0.000000	   0.000000	   0.000000;
	2	 0.0	 0.0	 3	   0.000000	   0.000000	   0.000000;
	2	 0.0	 0.0	 3	   0.000000	   0.000000	   0.000000;
	2	 0.0	 0.0	 3	   0.000000	   0.000000	   0.000000;
	2	 0.0	 0.0	 3	   0.000000	   0.000000	   0.000000;
	2	 0.0	 0.0	 3	   0.000000	   0.000000	   0.000000;
	2	 0.0	 0.0	 3	   0.000000	   0.000000	   0.000000;
	2	 0.0	 0.0	 3	   0.000000	   0.000000	   0.000000;
	2	 0.0	 0.0	 3	   0.000000	   0.000000	   0.000000;
	2	 0.0	 0.0	 3	   0.000000	   0.000000	   0.000000;
	2	 0.0	 0.0	 3	   0.000000	   0.000000	   0.000000;
	2	 0.0	 0.0	 3	   0.000000	   0.000000	   0.000000;
	2	 0.0	 0.0	 3	   0.000000	   0.000000	   0.000000;
	2	 0.0	 0.0	 3	   0.000000	 142.940000	   0.000000;
	2	 0.0	 0.0	 3	   0.000000	 128.220000	   0.000000;
	2	 0.0	 0.0	 3	   0.000000	   0.000000	   0.000000;
	2	 0.0	 0.0	 3	   0.000000	   0.000000	   0.000000;
	2	 0.0	 0.0	 3	   0.000000	   0.000000	   0.000000;
	2	 0.0	 0.0	 3	   0.000000	   0.000000	   0.000000;
	2	 0.0	 0.0	 3	   0.000000	   0.000000	   0.000000;
	2	 0.0	 0.0	 3	   0.000000	   0.000000	   0.000000;
	2	 0.0	 0.0	 3	   0.000000	   0.000000	   0.000000;
	2	 0.0	 0.0	 3	   0.000000	   0.000000	   0.000000;
	2	 0.0	 0.0	 3	   0.000000	 141.730000	   0.000000;
	2	 0.0	 0.0	 3	   0.000000	   0.000000	   0.000000;
	2	 0.0	 0.0	 3	   0.000000	   0.000000	   0.000000;
	2	 0.0	 0.0	 3	   0.000000	   0.000000	   0.000000;
	2	 0.0	 0.0	 3	   0.000000	   0.000000	   0.000000;
	2	 0.0	 0.0	 3	   0.000000	   0.000000	   0.000000;
	2	 0.0	 0.0	 3	   0.000000	   0.000000	   0.000000;
	2	 0.0	 0.0	 3	   0.000000	   0.000000	   0.000000;
	2	 0.0	 0.0	 3	   0.000000	   0.000000	   0.000000;
	2	 0.0	 0.0	 3	   0.000000	 100.820000	   0.000000;
	2	 0.0	 0.0	 3	   0.000000	 151.900000	   0.000000;
	2	 0.0	 0.0	 3	   0.000000	   0.000000	   0.000000;
	2	 0.0	 0.0	 3	   0.000000	   0.000000	   0.000000;
	2	 0.0	 0.0	 3	   0.000000	   0.000000	   0.000000;
	2	 0.0	 0.0	 3	   0.000000	   0.000000	   0.000000;
	2	 0.0	 0.0	 3	   0.000000	   0.000000	   0.000000;
	2	 0.0	 0.0	 3	   0.000000	   0.000000	   0.000000;
	2	 0.0	 0.0	 3	   0.000000	   0.000000	   0.000000;
	2	 0.0	 0.0	 3	   0.000000	 114.150000	   0.000000;
	2	 0.0	 0.0	 3	   0.000000	   0.000000	   0.000000;
	2	 0.0	 0.0	 3	   0.000000	   0.000000	   0.000000;
	2	 0.0	 0.0	 3	   0.000000	   0.000000	   0.000000;
	2	 0.0	 0.0	 3	   0.000000	   0.000000	   0.000000;
	2	 0.0	 0.0	 3	   0.000000	   0.000000	   0.000000;
	2	 0.0	 0.0	 3	   0.000000	   0.000000	   0.000000;
	2	 0.0	 0.0	 3	   0.000000	  87.950000	   0.000000;
	2	 0.0	 0.0	 3	   0.000000	 130.250000	   0.000000;
	2	 0.0	 0.0	 3	   0.000000	   0.000000	   0.000000;
	2	 0.0	 0.0	 3	   0.000000	   0.000000	   0.000000;
	2	 0.0	 0.0	 3	   0.000000	   0.000000	   0.000000;
	2	 0.0	 0.0	 3	   0.000000	   0.000000	   0.000000;
	2	 0.0	 0.0	 3	   0.000000	   0.000000	   0.000000;
	2	 0.0	 0.0	 3	   0.000000	   0.000000	   0.000000;
	2	 0.0	 0.0	 3	   0.000000	   0.000000	   0.000000;
	2	 0.0	 0.0	 3	   0.000000	   0.000000	   0.000000;
	2	 0.0	 0.0	 3	   0.000000	   0.000000	   0.000000;
	2	 0.0	 0.0	 3	   0.000000	 145.970000	   0.000000;
	2	 0.0	 0.0	 3	   0.000000	 137.580000	   0.000000;
	2	 0.0	 0.0	 3	   0.000000	 147.360000	   0.000000;
	2	 0.0	 0.0	 3	   0.000000	   0.000000	   0.000000;
	2	 0.0	 0.0	 3	   0.000000	   0.000000	   0.000000;
	2	 0.0	 0.0	 3	   0.000000	   0.000000	   0.000000;
	2	 0.0	 0.0	 3	   0.000000	   0.000000	   0.000000;
	2	 0.0	 0.0	 3	   0.000000	   0.000000	   0.000000;
	2	 0.0	 0.0	 3	   0.000000	   0.000000	   0.000000;
	2	 0.0	 0.0	 3	   0.000000	   0.000000	   0.000000;
	2	 0.0	 0.0	 3	   0.000000	   0.000000	   0.000000;
	2	 0.0	 0.0	 3	   0.000000	   0.000000	   0.000000;
	2	 0.0	 0.0	 3	   0.000000	   0.000000	   0.000000;
	2	 0.0	 0.0	 3	   0.000000	   0.000000	   0.000000;
	2	 0.0	 0.0	 3	   0.000000	  82.920000	   0.000000;
	2	 0.0	 0.0	 3	   0.000000	 133.590000	   0.000000;
	2	 0.0	 0.0	 3	   0.000000	   0.000000	   0.000000;
	2	 0.0	 0.0	 3	   0.000000	 152.950000	   0.000000;
	2	 0.0	 0.0	 3	   0.000000	  67.350000	   0.000000;
	2	 0.0	 0.0	 3	   0.000000	 134.930000	   0.000000;
	2	 0.0	 0.0	 3	   0.000000	   0.000000	   0.000000;
	2	 0.0	 0.0	 3	   0.000000	  61.320000	   0.000000;
	2	 0.0	 0.0	 3	   0.000000	   0.000000	   0.000000;
	2	 0.0	 0.0	 3	   0.000000	   0.000000	   0.000000;
	2	 0.0	 0.0	 3	   0.000000	   0.000000	   0.000000;
	2	 0.0	 0.0	 3	   0.000000	   0.000000	   0.000000;
	2	 0.0	 0.0	 3	   0.000000	   0.000000	   0.000000;
	2	 0.0	 0.0	 3	   0.000000	   0.000000	   0.000000;
	2	 0.0	 0.0	 3	   0.000000	   0.000000	   0.000000;
	2	 0.0	 0.0	 3	   0.000000	   0.000000	   0.000000;
	2	 0.0	 0.0	 3	   0.000000	   0.000000	   0.000000;
	2	 0.0	 0.0	 3	   0.000000	   0.000000	   0.000000;
	2	 0.0	 0.0	 3	   0.000000	   0.000000	   0.000000;
	2	 0.0	 0.0	 3	   0.000000	   0.000000	   0.000000;
	2	 0.0	 0.0	 3	   0.000000	   0.000000	   0.000000;
	2	 0.0	 0.0	 3	   0.000000	   0.000000	   0.000000;
	2	 0.0	 0.0	 3	   0.000000	   0.000000	   0.000000;
	2	 0.0	 0.0	 3	   0.000000	   0.000000	   0.000000;
	2	 0.0	 0.0	 3	   0.000000	  61.400000	   0.000000;
	2	 0.0	 0.0	 3	   0.000000	 114.990000	   0.000000;
	2	 0.0	 0.0	 3	   0.000000	 122.640000	   0.000000;
	2	 0.0	 0.0	 3	   0.000000	 118.840000	   0.000000;
	2	 0.0	 0.0	 3	   0.000000	   0.000000	   0.000000;
	2	 0.0	 0.0	 3	   0.000000	   0.000000	   0.000000;
	2	 0.0	 0.0	 3	   0.000000	   0.000000	   0.000000;
	2	 0.0	 0.0	 3	   0.000000	   0.000000	   0.000000;
	2	 0.0	 0.0	 3	   0.000000	   0.000000	   0.000000;
	2	 0.0	 0.0	 3	   0.000000	   0.000000	   0.000000;
	2	 0.0	 0.0	 3	   0.000000	   0.000000	   0.000000;
	2	 0.0	 0.0	 3	   0.000000	 143.830000	   0.000000;
	2	 0.0	 0.0	 3	   0.000000	  67.480000	   0.000000;
	2	 0.0	 0.0	 3	   0.000000	  88.000000	   0.000000;
	2	 0.0	 0.0	 3	   0.000000	   0.000000	   0.000000;
	2	 0.0	 0.0	 3	   0.000000	   0.000000	   0.000000;
	2	 0.0	 0.0	 3	   0.000000	   0.000000	   0.000000;
	2	 0.0	 0.0	 3	   0.000000	   0.000000	   0.000000;
	2	 0.0	 0.0	 3	   0.000000	   0.000000	   0.000000;
	2	 0.0	 0.0	 3	   0.000000	   0.000000	   0.000000;
	2	 0.0	 0.0	 3	   0.000000	 129.860000	   0.000000;
	2	 0.0	 0.0	 3	   0.000000	 108.160000	   0.000000;
	2	 0.0	 0.0	 3	   0.000000	   0.000000	   0.000000;
	2	 0.0	 0.0	 3	   0.000000	   0.000000	   0.000000;
	2	 0.0	 0.0	 3	   0.000000	   0.000000	   0.000000;
...
];

%% branch data
%	fbus	tbus	r	x	b	rateA	rateB	rateC	ratio	angle	status	angmin	angmax
mpc.branch = [
	16	 1	 0.00155	 0.01169	 0.0182	 160.0	 160.0	 160.0	 0.0	 0.0	 1	 -8.403879	 8.403879;
	355	 1	 0.00157	 0.06612	 0.0	 160.0	 160.0	 160.0	 1.0099	 0.0	 1	 -8.403879	 8.403879;
	17	 2	 0.00155	 0.01169	 0.0182	 160.0	 160.0	 160.0	 0.0	 0.0	 1	 -8.403879	 8.403879;
	354	 2	 0.00157	 0.06612	 0.0	 160.0	 160.0	 160.0	 1.022	 0.0	 1	 -8.403879	 8.403879;
	10	 3	 0.01068	 0.07895	 0.1226	 274.0	 274.0	 274.0	 0.0	 0.0	 1	 -8.403879	 8.403879;
	219	 3	 0.00165	 0.06736	 0.0	 160.0	 160.0	 160.0	 1.027	 0.0	 1	 -8.403879	 8.403879;
	220	 3	 0.00165	 0.06736	 0.0	 160.0	 160.0	 160.0	 0.9955	 0.0	 1	 -8.403879	 8.403879;
	7	 4	 0.01674	 0.09711	 0.14423	 377.0	 377.0	 377.0	 0.0	 0.0	 1	 -8.403879	 8.403879;
	11	 4	 0.00293	 0.01599	 0.02478	 335.0	 335.0	 335.0	 0.0	 0.0	 1	 -8.403879	 8.403879;
	14	 4	 0.00442	 0.03223	 0.04985	 464.0	 464.0	 464.0	 0.0	 0.0	 1	 -8.403879	 8.403879;
	16	 4	 0.00888	 0.06665	 0.08896	 377.0	 377.0	 377.0	 0.0	 0.0	 1	 -8.403879	 8.403879;
	22	 4	 0.00783	 0.043	 0.04962	 350.0	 350.0	 350.0	 0.0	 0.0	 1	 -8.403879	 8.403879;
	245	 4	 0.00165	 0.06901	 0.0	 160.0	 160.0	 160.0	 1.0594	 0.0	 1	 -8.403879	 8.403879;
	246	 4	 0.00165	 0.06901	 0.0	 160.0	 160.0	 160.0	 1.0448	 0.0	 1	 -8.403879	 8.403879;
	5	 6	 0.00064	 0.0305	 0.0	 400.0	 400.0	 400.0	 1.0435	 -0.6	 1	 -8.403879	 8.403879;
	7	 5	 0.00525	 0.03988	 0.06195	 381.0	 381.0	 381.0	 0.0	 0.0	 1	 -8.403879	 8.403879;
	10	 5	 0.01459	 0.11219	 0.16553	 381.0	 381.0	 381.0	 0.0	 0.0	 1	 -8.403879	 8.403879;
	309	 5	 0.00165	 0.0686	 0.0	 160.0	 160.0	 160.0	 1.0646	 0.0	 1	 -8.403879	 8.403879;
	309	 5	 0.00165	 0.0686	 0.0	 160.0	 160.0	 160.0	 1.0523	 0.0	 1	 -8.403879	 8.403879;
	6	 8	 0.00112	 0.01329	 0.34125	 1316.0	 1316.0	 1316.0	 0.0	 0.0	 1	 -8.403879	 8.403879;
	6	 9	 0.00299	 0.03675	 0.9184	 1427.0	 1427.0	 1427.0	 0.0	 0.0	 1	 -8.403879	 8.403879;
	15	 6	 0.00298	 0.03417	 0.93504	 1427.0	 1427.0	 1427.0	 0.0	 0.0	 1	 -8.403879	 8.403879;
	31	 6	 0.0015	 0.01506	 0.4032	 1385.0	 1385.0	 1385.0	 0.0	 0.0	 1	 -8.403879	 8.403879;
	310	 6	 0.0015	 0.06188	 0.0	 250.0	 250.0	 250.0	 1.0613	 0.0	 1	 -8.403879	 8.403879;
	12	 7	 0.01211	 0.08742	 0.14017	 381.0	 381.0	 381.0	 0.0	 0.0	 1	 -8.403879	 8.403879;
	13	 7	 0.00205	 0.01326	 0.02243	 335.0	 335.0	 335.0	 0.0	 0.0	 1	 -8.403879	 8.403879;
	19	 7	 0.0057	 0.0407	 0.06021	 323.0	 323.0	 323.0	 0.0	 0.0	 1	 -8.403879	 8.403879;
	21	 7	 0.00093	 0.00651	 0.01113	 160.0	 160.0	 160.0	 0.0	 0.0	 1	 -8.403879	 8.403879;
	29	 7	 0.01269	 0.07498	 0.1302	 362.0	 362.0	 362.0	 0.0	 0.0	 1	 -8.403879	 8.403879;
	321	 7	 0.00041	 0.03368	 0.0	 250.0	 250.0	 250.0	 1.0323	 0.0	 1	 -8.403879	 8.403879;
	322	 7	 0.00165	 0.06775	 0.0	 160.0	 160.0	 160.0	 1.0569	 0.0	 1	 -8.403879	 8.403879;
	8	 18	 0.00336	 0.03977	 1.02163	 1316.0	 1316.0	 1316.0	 0.0	 0.0	 1	 -8.403879	 8.403879;
	332	 9	 0.00087	 0.05244	 -0.02144	 330.0	 330.0	 330.0	 1.0781	 0.0	 1	 -8.403879	 8.403879;
	171	 10	 0.01409	 0.10413	 0.15972	 464.0	 464.0	 464.0	 0.0	 0.0	 1	 -8.403879	 8.403879;
	346	 10	 0.00124	 0.06839	 0.0	 160.0	 160.0	 160.0	 1.0054	 0.0	 1	 -8.403879	 8.403879;
	347	 10	 0.00124	 0.06839	 0.0	 160.0	 160.0	 160.0	 1.024	 0.0	 1	 -8.403879	 8.403879;
	16	 11	 0.0057	 0.03952	 0.07553	 464.0	 464.0	 464.0	 0.0	 0.0	 1	 -8.403879	 8.403879;
	17	 11	 0.0057	 0.03952	 0.07553	 464.0	 464.0	 464.0	 0.0	 0.0	 1	 -8.403879	 8.403879;
	111	 11	 0.01068	 0.06196	 0.09496	 394.0	 394.0	 394.0	 0.0	 0.0	 1	 -8.403879	 8.403879;
	352	 11	 0.00165	 0.06901	 0.0	 160.0	 160.0	 160.0	 1.0412	 0.0	 1	 -8.403879	 8.403879;
	353	 11	 0.00165	 0.06901	 0.0	 160.0	 160.0	 160.0	 1.0559	 0.0	 1	 -8.403879	 8.403879;
	140	 12	 0.01465	 0.10589	 0.17085	 464.0	 464.0	 464.0	 0.0	 0.0	 1	 -8.403879	 8.403879;
	359	 12	 0.00155	 0.06612	 0.0	 160.0	 160.0	 160.0	 1.0395	 0.0	 1	 -8.403879	 8.403879;
	360	 12	 0.00157	 0.06612	 0.0	 160.0	 160.0	 160.0	 1.059	 0.0	 1	 -8.403879	 8.403879;
	29	 13	 0.01345	 0.08114	 0.14113	 339.0	 339.0	 339.0	 0.0	 0.0	 1	 -8.403879	 8.403879;
	365	 13	 0.00165	 0.06901	 0.0	 160.0	 160.0	 160.0	 1.0312	 0.0	 1	 -8.403879	 8.403879;
	366	 13	 0.00165	 0.06901	 0.0	 160.0	 160.0	 160.0	 0.9872	 0.0	 1	 -8.403879	 8.403879;
	17	 14	 0.00384	 0.02853	 0.04588	 464.0	 464.0	 464.0	 0.0	 0.0	 1	 -8.403879	 8.403879;
	367	 14	 0.00157	 0.06798	 0.0	 160.0	 160.0	 160.0	 1.0664	 0.0	 1	 -8.403879	 8.403879;
	368	 14	 0.00165	 0.06901	 0.0	 160.0	 160.0	 160.0	 1.0777	 0.0	 1	 -8.403879	 8.403879;
	18	 15	 0.00358	 0.04262	 1.0944	 1662.0	 1662.0	 1662.0	 0.0	 0.0	 1	 -8.403879	 8.403879;
	15	 165	 0.00207	 0.02474	 0.664	 831.0	 831.0	 831.0	 0.0	 0.0	 1	 -8.403879	 8.403879;
	374	 15	 0.0015	 0.06188	 0.0	 250.0	 250.0	 250.0	 1.1502	 0.0	 1	 -8.403879	 8.403879;
	16	 18	 0.00036	 0.02519	 0.0	 500.0	 500.0	 500.0	 1.0605	 0.0	 1	 -8.403879	 8.403879;
	16	 73	 0.00909	 0.0624	 0.11142	 464.0	 464.0	 464.0	 0.0	 0.0	 1	 -8.403879	 8.403879;
	17	 18	 0.00036	 0.02519	 0.0	 500.0	 500.0	 500.0	 1.0607	 0.0	 1	 -8.403879	 8.403879;
	17	 74	 0.00868	 0.06405	 0.09699	 464.0	 464.0	 464.0	 0.0	 0.0	 1	 -8.403879	 8.403879;
	20	 18	 0.00063	 0.00749	 0.39226	 1427.0	 1427.0	 1427.0	 0.0	 0.0	 1	 -8.403879	 8.403879;
	75	 18	 0.00219	 0.02369	 0.59584	 1434.0	 1434.0	 1434.0	 0.0	 0.0	 1	 -8.403879	 8.403879;
	18	 76	 0.00137	 0.01625	 0.41184	 1662.0	 1662.0	 1662.0	 0.0	 0.0	 1	 -8.403879	 8.403879;
	18	 101	 0.00231	 0.02769	 0.70144	 1662.0	 1662.0	 1662.0	 0.0	 0.0	 1	 -8.403879	 8.403879;
	124	 19	 0.01696	 0.12366	 0.19699	 464.0	 464.0	 464.0	 0.0	 0.0	 1	 -8.403879	 8.403879;
	425	 19	 0.00165	 0.06818	 0.0	 160.0	 160.0	 160.0	 1.0241	 0.0	 1	 -8.403879	 8.403879;
	67	 20	 0.00331	 0.03425	 0.85888	 831.0	 831.0	 831.0	 0.0	 0.0	 1	 -8.403879	 8.403879;
	447	 20	 0.00137	 0.06119	 -0.01504	 250.0	 250.0	 250.0	 1.0796	 0.0	 1	 -8.403879	 8.403879;
	448	 20	 0.00137	 0.06119	 -0.01504	 250.0	 250.0	 250.0	 1.0923	 0.0	 1	 -8.403879	 8.403879;
	502	 21	 0.00165	 0.07107	 0.0	 160.0	 160.0	 160.0	 0.9922	 0.0	 1	 -8.403879	 8.403879;
	112	 22	 0.00465	 0.02618	 0.02962	 362.0	 362.0	 362.0	 0.0	 0.0	 1	 -8.403879	 8.403879;
	526	 22	 0.00165	 0.06901	 0.0	 160.0	 160.0	 160.0	 1.0685	 0.0	 1	 -8.403879	 8.403879;
	527	 22	 0.00165	 0.06901	 0.0	 160.0	 160.0	 160.0	 1.0424	 0.0	 1	 -8.403879	 8.403879;
	37	 23	 0.01163	 0.07031	 0.1058	 394.0	 394.0	 394.0	 0.0	 0.0	 1	 -8.403879	 8.403879;
	46	 23	 0.00837	 0.04868	 0.07348	 457.0	 457.0	 457.0	 0.0	 0.0	 1	 -8.403879	 8.403879;
	53	 23	 0.01122	 0.06558	 0.09835	 274.0	 274.0	 274.0	 0.0	 0.0	 1	 -8.403879	 8.403879;
	540	 23	 0.0014	 0.0668	 0.0	 160.0	 160.0	 160.0	 1.0182	 0.0	 1	 -8.403879	 8.403879;
	54	 24	 0.00769	 0.05727	 0.08789	 160.0	 160.0	 160.0	 0.0	 0.0	 1	 -8.403879	 8.403879;
	545	 24	 0.00151	 0.06715	 0.0	 160.0	 160.0	 160.0	 1.0161	 0.0	 1	 -8.403879	 8.403879;
	41	 25	 0.00556	 0.04145	 0.0636	 274.0	 274.0	 274.0	 0.0	 0.0	 1	 -8.403879	 8.403879;
	53	 25	 0.00452	 0.03368	 0.05169	 464.0	 464.0	 464.0	 0.0	 0.0	 1	 -8.403879	 8.403879;
...